<?xml version="1.0" encoding="UTF-8"?>

<!-- generated on 2022-01-31 16:16:08 by Eclipse SUMO netedit Version 1.9.2
<configuration xmlns:xsi="http://www.w3.org/2001/XMLSchema-instance" xsi:noNamespaceSchemaLocation="http://sumo.dlr.de/xsd/netconvertConfiguration.xsd">

    <input>
        <sumo-net-file value="C:\Users\OTSLCPS004\Sumo\2022-01-28-09-57-08-Handeda\osm.net.xml"/>
    </input>

    <output>
        <output-file value="C:\Users\OTSLCPS004\Sumo\2022-01-28-09-57-08-Handeda\osm.net.xml"/>
        <output.street-names value="true"/>
    </output>

    <processing>
        <geometry.min-radius.fix.railways value="false"/>
        <geometry.max-grade.fix value="false"/>
        <offset.disable-normalization value="true"/>
        <lefthand value="true"/>
    </processing>

    <junctions>
        <no-internal-links value="false"/>
        <no-turnarounds value="true"/>
        <junctions.corner-detail value="5"/>
        <junctions.limit-turn-speed value="5.5"/>
        <rectangular-lane-cut value="false"/>
    </junctions>

    <pedestrian>
        <walkingareas value="true"/>
    </pedestrian>

    <netedit>
        <additional-files value="C:\Users\OTSLCPS004\Sumo\2022-01-28-09-57-08-Handeda\osm.poly.xml"/>
    </netedit>

    <report>
        <aggregate-warnings value="5"/>
    </report>

</configuration>
-->

<net version="1.9" junctionCornerDetail="5" walkingareas="true" lefthand="true" limitTurnSpeed="5.50" xmlns:xsi="http://www.w3.org/2001/XMLSchema-instance" xsi:noNamespaceSchemaLocation="http://sumo.dlr.de/xsd/net_file.xsd">

    <location netOffset="-386369.45,-3931032.58" convBoundary="680.53,0.00,5418.93,7955.80" origBoundary="139.638763,35.458013,139.837700,35.630374" projParameter="+proj=utm +zone=54 +ellps=WGS84 +datum=WGS84 +units=m +no_defs"/>

    <type id="highway.bridleway" priority="1" numLanes="1" speed="2.78" allow="pedestrian" oneway="1" width="2.00"/>
    <type id="highway.bus_guideway" priority="1" numLanes="1" speed="13.89" allow="bus" oneway="1"/>
    <type id="highway.cycleway" priority="1" numLanes="1" speed="8.33" allow="bicycle" oneway="1" width="1.00"/>
    <type id="highway.footway" priority="1" numLanes="1" speed="2.78" allow="pedestrian" oneway="1" width="2.00"/>
    <type id="highway.ford" priority="1" numLanes="1" speed="2.78" allow="army" oneway="1"/>
    <type id="highway.living_street" priority="2" numLanes="1" speed="2.78" disallow="tram rail_urban rail rail_electric rail_fast ship" oneway="1"/>
    <type id="highway.motorway" priority="14" numLanes="2" speed="27.78" allow="private emergency authority army vip passenger hov taxi bus coach delivery truck trailer motorcycle evehicle custom1 custom2" oneway="1"/>
    <type id="highway.motorway_link" priority="9" numLanes="1" speed="16.67" allow="private emergency authority army vip passenger hov taxi bus coach delivery truck trailer motorcycle evehicle custom1 custom2" oneway="1"/>
    <type id="highway.path" priority="1" numLanes="1" speed="2.78" allow="pedestrian bicycle" oneway="1" width="2.00"/>
    <type id="highway.pedestrian" priority="1" numLanes="1" speed="2.78" allow="pedestrian" oneway="1" width="2.00"/>
    <type id="highway.primary" priority="12" numLanes="2" speed="13.89" disallow="pedestrian tram rail_urban rail rail_electric rail_fast ship" oneway="1" sidewalkWidth="-1.00"/>
    <type id="highway.primary_link" priority="7" numLanes="1" speed="13.89" disallow="pedestrian tram rail_urban rail rail_electric rail_fast ship" oneway="1" sidewalkWidth="-1.00"/>
    <type id="highway.raceway" priority="15" numLanes="2" speed="83.33" allow="vip" oneway="1"/>
    <type id="highway.residential" priority="3" numLanes="1" speed="13.89" disallow="pedestrian tram rail_urban rail rail_electric rail_fast ship" oneway="1" sidewalkWidth="-1.00"/>
    <type id="highway.secondary" priority="11" numLanes="1" speed="13.89" disallow="pedestrian tram rail_urban rail rail_electric rail_fast ship" oneway="1" sidewalkWidth="-1.00"/>
    <type id="highway.secondary_link" priority="6" numLanes="1" speed="13.89" disallow="pedestrian tram rail_urban rail rail_electric rail_fast ship" oneway="1" sidewalkWidth="-1.00"/>
    <type id="highway.service" priority="1" numLanes="1" speed="5.56" allow="pedestrian delivery bicycle" oneway="1"/>
    <type id="highway.stairs" priority="1" numLanes="1" speed="1.39" allow="pedestrian" oneway="1" width="2.00"/>
    <type id="highway.step" priority="1" numLanes="1" speed="1.39" allow="pedestrian" oneway="1" width="2.00"/>
    <type id="highway.steps" priority="1" numLanes="1" speed="1.39" allow="pedestrian" oneway="1" width="2.00"/>
    <type id="highway.tertiary" priority="10" numLanes="1" speed="13.89" disallow="pedestrian tram rail_urban rail rail_electric rail_fast ship" oneway="1" sidewalkWidth="-1.00"/>
    <type id="highway.tertiary_link" priority="5" numLanes="1" speed="13.89" disallow="pedestrian tram rail_urban rail rail_electric rail_fast ship" oneway="1" sidewalkWidth="-1.00"/>
    <type id="highway.track" priority="1" numLanes="1" speed="5.56" allow="pedestrian motorcycle moped bicycle" oneway="1"/>
    <type id="highway.trunk" priority="13" numLanes="2" speed="13.89" disallow="pedestrian bicycle tram rail_urban rail rail_electric rail_fast ship" oneway="1"/>
    <type id="highway.trunk_link" priority="8" numLanes="1" speed="13.89" disallow="pedestrian bicycle tram rail_urban rail rail_electric rail_fast ship" oneway="1"/>
    <type id="highway.unclassified" priority="4" numLanes="1" speed="13.89" disallow="pedestrian tram rail_urban rail rail_electric rail_fast ship" oneway="1" sidewalkWidth="-1.00"/>
    <type id="highway.unsurfaced" priority="1" numLanes="1" speed="8.33" disallow="tram rail_urban rail rail_electric rail_fast ship" oneway="1"/>
    <type id="railway.highspeed" priority="21" numLanes="1" speed="69.44" allow="rail_fast" oneway="1"/>
    <type id="railway.light_rail" priority="19" numLanes="1" speed="27.78" allow="rail_urban" oneway="1"/>
    <type id="railway.preserved" priority="16" numLanes="1" speed="27.78" allow="rail" oneway="1"/>
    <type id="railway.rail" priority="20" numLanes="1" speed="44.44" allow="rail" oneway="1"/>
    <type id="railway.subway" priority="18" numLanes="1" speed="27.78" allow="rail_urban" oneway="1"/>
    <type id="railway.tram" priority="17" numLanes="1" speed="13.89" allow="tram" oneway="1"/>

    <edge id=":1676296112_0" function="internal">
        <lane id=":1676296112_0_0" index="0" disallow="pedestrian tram rail_urban rail rail_electric rail_fast ship" speed="13.89" length="13.23" shape="4025.34,2810.42 4013.75,2804.04"/>
    </edge>
    <edge id=":1676296112_1" function="internal">
        <lane id=":1676296112_1_0" index="0" disallow="pedestrian tram rail_urban rail rail_electric rail_fast ship" speed="8.02" length="5.38" shape="4025.34,2810.42 4021.89,2809.23 4020.17,2809.40"/>
    </edge>
    <edge id=":1676296112_2" function="internal">
        <lane id=":1676296112_2_0" index="0" disallow="pedestrian tram rail_urban rail rail_electric rail_fast ship" speed="3.65" length="2.34" shape="4025.34,2810.42 4023.90,2810.56 4023.17,2811.07"/>
    </edge>
    <edge id=":1676296112_9" function="internal">
        <lane id=":1676296112_9_0" index="0" disallow="pedestrian tram rail_urban rail rail_electric rail_fast ship" speed="8.02" length="8.74" shape="4020.17,2809.40 4018.80,2809.53 4016.04,2811.33 4013.63,2814.62"/>
    </edge>
    <edge id=":1676296112_10" function="internal">
        <lane id=":1676296112_10_0" index="0" disallow="pedestrian tram rail_urban rail rail_electric rail_fast ship" speed="3.65" length="2.34" shape="4023.17,2811.07 4023.15,2811.97 4023.83,2813.24"/>
    </edge>
    <edge id=":1676296112_3" function="internal">
        <lane id=":1676296112_3_0" index="0" disallow="pedestrian tram rail_urban rail rail_electric rail_fast ship" speed="6.54" length="9.02" shape="4016.43,2816.17 4018.00,2813.99 4019.75,2812.78 4021.70,2812.53 4023.83,2813.24"/>
    </edge>
    <edge id=":1676296112_4" function="internal">
        <lane id=":1676296112_4_0" index="0" disallow="pedestrian tram rail_urban rail rail_electric rail_fast ship" speed="8.01" length="14.13" shape="4016.43,2816.17 4017.94,2812.38 4018.00,2809.10 4016.60,2806.31 4013.75,2804.04"/>
    </edge>
    <edge id=":1676296112_5" function="internal">
        <lane id=":1676296112_5_0" index="0" disallow="pedestrian tram rail_urban rail rail_electric rail_fast ship" speed="3.65" length="4.67" shape="4016.43,2816.17 4016.31,2814.73 4015.81,2814.00 4014.91,2813.96 4013.63,2814.62"/>
    </edge>
    <edge id=":1676296112_6" function="internal">
        <lane id=":1676296112_6_0" index="0" disallow="pedestrian tram rail_urban rail rail_electric rail_fast ship" speed="6.52" length="4.83" shape="4012.17,2806.82 4013.91,2808.24 4014.74,2810.02 4014.71,2810.64"/>
    </edge>
    <edge id=":1676296112_7" function="internal">
        <lane id=":1676296112_7_0" index="0" disallow="pedestrian tram rail_urban rail rail_electric rail_fast ship" speed="13.89" length="13.31" shape="4012.17,2806.82 4023.83,2813.24"/>
    </edge>
    <edge id=":1676296112_8" function="internal">
        <lane id=":1676296112_8_0" index="0" disallow="pedestrian tram rail_urban rail rail_electric rail_fast ship" speed="3.65" length="2.34" shape="4012.17,2806.82 4013.61,2806.72 4014.35,2806.22"/>
    </edge>
    <edge id=":1676296112_11" function="internal">
        <lane id=":1676296112_11_0" index="0" disallow="pedestrian tram rail_urban rail rail_electric rail_fast ship" speed="6.52" length="4.18" shape="4014.71,2810.64 4014.64,2812.14 4013.63,2814.62"/>
    </edge>
    <edge id=":1676296112_12" function="internal">
        <lane id=":1676296112_12_0" index="0" disallow="pedestrian tram rail_urban rail rail_electric rail_fast ship" speed="3.65" length="2.34" shape="4014.35,2806.22 4014.40,2805.32 4013.75,2804.04"/>
    </edge>
    <edge id=":1676296112_c0" function="crossing" crossingEdges="820461462 -820461462">
        <lane id=":1676296112_c0_0" index="0" allow="pedestrian" speed="1.00" length="6.40" width="4.00" shape="4021.31,2813.71 4024.33,2808.06"/>
    </edge>
    <edge id=":1676296112_c1" function="crossing" crossingEdges="-155218281 155218281">
        <lane id=":1676296112_c1_0" index="0" allow="pedestrian" speed="1.00" length="6.40" width="4.00" shape="4013.20,2812.10 4018.80,2815.20"/>
    </edge>
    <edge id=":1676296112_c2" function="crossing" crossingEdges="-155218283#2 155218283#2">
        <lane id=":1676296112_c2_0" index="0" allow="pedestrian" speed="1.00" length="6.40" width="4.00" shape="4016.27,2803.63 4013.12,2809.20"/>
    </edge>
    <edge id=":1676296112_w0" function="walkingarea">
        <lane id=":1676296112_w0_0" index="0" allow="pedestrian" speed="1.00" length="8.27" width="4.00" shape="4018.02,2804.61 4014.53,2802.64 4016.01,2800.03 4027.04,2807.24 4026.09,2809.01 4022.57,2807.12"/>
    </edge>
    <edge id=":1676296112_w1" function="walkingarea">
        <lane id=":1676296112_w1_0" index="0" allow="pedestrian" speed="1.00" length="3.35" width="4.00" shape="4023.07,2814.65 4022.13,2816.41 4019.58,2817.91 4017.83,2816.94 4018.58,2815.79 4019.38,2814.94 4020.23,2814.40 4021.13,2814.18 4022.08,2814.26"/>
    </edge>
    <edge id=":1676296112_w2" function="walkingarea">
        <lane id=":1676296112_w2_0" index="0" allow="pedestrian" speed="1.00" length="3.28" width="4.00" shape="4012.23,2813.84 4010.48,2812.88 4009.91,2810.83 4011.38,2808.21 4012.25,2808.85 4012.82,2809.60 4013.11,2810.48 4013.10,2811.48 4012.81,2812.60"/>
    </edge>
    <edge id=":1676296114_0" function="internal">
        <lane id=":1676296114_0_0" index="0" disallow="pedestrian tram rail_urban rail rail_electric rail_fast ship" speed="3.65" length="4.67" shape="4031.52,2817.36 4032.96,2817.22 4033.69,2816.71 4033.72,2815.81 4033.04,2814.54"/>
    </edge>
    <edge id=":1676296114_w0" function="walkingarea">
        <lane id=":1676296114_w0_0" index="0" allow="pedestrian" speed="1.00" length="8.40" width="2.00" shape="4033.79,2813.13 4034.73,2811.37 4029.83,2820.53 4030.77,2818.77"/>
    </edge>
    <edge id=":1676296144_w0" function="walkingarea">
        <lane id=":1676296144_w0_0" index="0" allow="pedestrian" speed="1.00" length="0.29" width="2.00" shape="3800.80,2847.16 3802.54,2848.15 3802.41,2848.39 3800.66,2847.42"/>
    </edge>
    <edge id=":1676296210_0" function="internal">
        <lane id=":1676296210_0_0" index="0" disallow="pedestrian tram rail_urban rail rail_electric rail_fast ship" speed="6.50" length="9.11" shape="3982.72,2870.46 3981.13,2872.65 3979.36,2873.85 3977.40,2874.06 3975.25,2873.27"/>
    </edge>
    <edge id=":1676296210_1" function="internal">
        <lane id=":1676296210_1_0" index="0" disallow="pedestrian tram rail_urban rail rail_electric rail_fast ship" speed="8.08" length="14.17" shape="3982.72,2870.46 3981.18,2874.29 3981.07,2877.61 3982.40,2880.43 3985.16,2882.74"/>
    </edge>
    <edge id=":1676296210_2" function="internal">
        <lane id=":1676296210_2_0" index="0" disallow="pedestrian tram rail_urban rail rail_electric rail_fast ship" speed="3.65" length="4.67" shape="3982.72,2870.46 3982.84,2871.90 3983.34,2872.63 3984.24,2872.67 3985.52,2872.01"/>
    </edge>
    <edge id=":1676296210_3" function="internal">
        <lane id=":1676296210_3_0" index="0" disallow="pedestrian tram rail_urban rail rail_electric rail_fast ship" speed="6.60" length="4.97" shape="3986.79,2879.98 3985.10,2878.54 3984.33,2876.72 3984.38,2875.95"/>
    </edge>
    <edge id=":1676296210_4" function="internal">
        <lane id=":1676296210_4_0" index="0" disallow="pedestrian tram rail_urban rail rail_electric rail_fast ship" speed="13.89" length="13.35" shape="3986.79,2879.98 3975.25,2873.27"/>
    </edge>
    <edge id=":1676296210_5" function="internal">
        <lane id=":1676296210_5_0" index="0" disallow="pedestrian tram rail_urban rail rail_electric rail_fast ship" speed="3.65" length="2.34" shape="3986.79,2879.98 3985.35,2880.06 3984.60,2880.55"/>
    </edge>
    <edge id=":1676296210_9" function="internal">
        <lane id=":1676296210_9_0" index="0" disallow="pedestrian tram rail_urban rail rail_electric rail_fast ship" speed="6.60" length="4.15" shape="3984.38,2875.95 3984.47,2874.55 3985.52,2872.01"/>
    </edge>
    <edge id=":1676296210_10" function="internal">
        <lane id=":1676296210_10_0" index="0" disallow="pedestrian tram rail_urban rail rail_electric rail_fast ship" speed="3.65" length="2.34" shape="3984.60,2880.55 3984.53,2881.44 3985.16,2882.74"/>
    </edge>
    <edge id=":1676296210_6" function="internal">
        <lane id=":1676296210_6_0" index="0" disallow="pedestrian tram rail_urban rail rail_electric rail_fast ship" speed="13.89" length="13.31" shape="3973.66,2876.04 3985.16,2882.74"/>
    </edge>
    <edge id=":1676296210_7" function="internal">
        <lane id=":1676296210_7_0" index="0" disallow="pedestrian tram rail_urban rail rail_electric rail_fast ship" speed="7.99" length="5.47" shape="3973.66,2876.04 3977.14,2877.36 3978.89,2877.23"/>
    </edge>
    <edge id=":1676296210_8" function="internal">
        <lane id=":1676296210_8_0" index="0" disallow="pedestrian tram rail_urban rail rail_electric rail_fast ship" speed="3.65" length="2.34" shape="3973.66,2876.04 3975.10,2875.95 3975.84,2875.45"/>
    </edge>
    <edge id=":1676296210_11" function="internal">
        <lane id=":1676296210_11_0" index="0" disallow="pedestrian tram rail_urban rail rail_electric rail_fast ship" speed="7.99" length="8.85" shape="3978.89,2877.23 3980.28,2877.13 3983.07,2875.35 3985.52,2872.01"/>
    </edge>
    <edge id=":1676296210_12" function="internal">
        <lane id=":1676296210_12_0" index="0" disallow="pedestrian tram rail_urban rail rail_electric rail_fast ship" speed="3.65" length="2.34" shape="3975.84,2875.45 3975.89,2874.56 3975.25,2873.27"/>
    </edge>
    <edge id=":1676296210_c0" function="crossing" crossingEdges="155218281 -155218281">
        <lane id=":1676296210_c0_0" index="0" allow="pedestrian" speed="1.00" length="6.40" width="4.00" shape="3985.95,2874.53 3980.35,2871.43"/>
    </edge>
    <edge id=":1676296210_c1" function="crossing" crossingEdges="42747700#3 -42747700#3">
        <lane id=":1676296210_c1_0" index="0" allow="pedestrian" speed="1.00" length="6.40" width="4.00" shape="3982.63,2883.10 3985.88,2877.59"/>
    </edge>
    <edge id=":1676296210_c2" function="crossing" crossingEdges="-42747700#2 42747700#2">
        <lane id=":1676296210_c2_0" index="0" allow="pedestrian" speed="1.00" length="6.40" width="4.00" shape="3977.78,2872.88 3974.60,2878.43"/>
    </edge>
    <edge id=":1676296210_w0" function="walkingarea">
        <lane id=":1676296210_w0_0" index="0" allow="pedestrian" speed="1.00" length="3.30" width="4.00" shape="3976.05,2871.88 3977.54,2869.28 3979.57,2868.71 3981.32,2869.68 3980.56,2870.85 3979.76,2871.69 3978.90,2872.21 3978.00,2872.42 3977.05,2872.31"/>
    </edge>
    <edge id=":1676296210_w1" function="walkingarea">
        <lane id=":1676296210_w1_0" index="0" allow="pedestrian" speed="1.00" length="3.38" width="4.00" shape="3986.92,2872.78 3988.67,2873.75 3989.13,2876.02 3987.60,2878.60 3986.76,2877.96 3986.22,2877.18 3985.96,2876.28 3985.99,2875.24 3986.31,2874.08"/>
    </edge>
    <edge id=":1676296210_w2" function="walkingarea">
        <lane id=":1676296210_w2_0" index="0" allow="pedestrian" speed="1.00" length="8.39" width="4.00" shape="3980.90,2882.08 3984.35,2884.12 3982.82,2886.70 3971.37,2880.03 3972.86,2877.43 3976.33,2879.42"/>
    </edge>
    <edge id=":1676296212_w0" function="walkingarea">
        <lane id=":1676296212_w0_0" index="0" allow="pedestrian" speed="1.00" length="0.26" width="2.00" shape="3842.65,2873.86 3841.52,2875.51 3841.14,2875.16 3842.65,2873.86"/>
    </edge>
    <edge id=":1676296250_0" function="internal">
        <lane id=":1676296250_0_0" index="0" disallow="pedestrian tram rail_urban rail rail_electric rail_fast ship" speed="6.49" length="13.71" shape="3896.88,2887.21 3894.32,2890.96 3891.94,2892.30 3889.74,2891.24 3887.73,2887.78"/>
    </edge>
    <edge id=":1676296250_1" function="internal">
        <lane id=":1676296250_1_0" index="0" disallow="pedestrian tram rail_urban rail rail_electric rail_fast ship" speed="9.52" length="19.19" shape="3896.88,2887.21 3894.37,2893.04 3893.60,2897.88 3894.60,2901.73 3897.34,2904.59"/>
    </edge>
    <edge id=":1676296250_2" function="internal">
        <lane id=":1676296250_2_0" index="0" disallow="pedestrian tram rail_urban rail rail_electric rail_fast ship" speed="3.65" length="4.67" shape="3896.88,2887.21 3897.02,2888.65 3897.53,2889.38 3898.43,2889.41 3899.70,2888.73"/>
    </edge>
    <edge id=":1676296250_3" function="internal">
        <lane id=":1676296250_3_0" index="0" disallow="pedestrian tram rail_urban rail rail_electric rail_fast ship" speed="8.32" length="10.40" shape="3899.09,2901.91 3897.33,2899.91 3896.85,2897.05 3897.64,2893.32 3898.06,2892.39"/>
    </edge>
    <edge id=":1676296250_4" function="internal">
        <lane id=":1676296250_4_0" index="0" disallow="pedestrian tram rail_urban rail rail_electric rail_fast ship" speed="13.89" length="18.62" shape="3899.09,2901.91 3894.60,2898.79 3891.86,2896.13 3889.89,2892.83 3887.73,2887.78"/>
    </edge>
    <edge id=":1676296250_5" function="internal">
        <lane id=":1676296250_5_0" index="0" disallow="pedestrian tram rail_urban rail rail_electric rail_fast ship" speed="3.65" length="2.34" shape="3899.09,2901.91 3897.65,2901.93 3896.88,2902.38"/>
    </edge>
    <edge id=":1676296250_9" function="internal">
        <lane id=":1676296250_9_0" index="0" disallow="pedestrian tram rail_urban rail rail_electric rail_fast ship" speed="8.32" length="4.01" shape="3898.06,2892.39 3899.70,2888.73"/>
    </edge>
    <edge id=":1676296250_10" function="internal">
        <lane id=":1676296250_10_0" index="0" disallow="pedestrian tram rail_urban rail rail_electric rail_fast ship" speed="3.65" length="2.34" shape="3896.88,2902.38 3896.77,2903.26 3897.34,2904.59"/>
    </edge>
    <edge id=":1676296250_6" function="internal">
        <lane id=":1676296250_6_0" index="0" disallow="pedestrian tram rail_urban rail rail_electric rail_fast ship" speed="13.89" length="19.87" shape="3885.04,2889.66 3887.38,2895.02 3889.54,2898.50 3892.52,2901.28 3897.34,2904.59"/>
    </edge>
    <edge id=":1676296250_7" function="internal">
        <lane id=":1676296250_7_0" index="0" disallow="pedestrian tram rail_urban rail rail_electric rail_fast ship" speed="8.06" length="8.24" shape="3885.04,2889.66 3888.26,2895.20 3889.92,2895.99"/>
    </edge>
    <edge id=":1676296250_8" function="internal">
        <lane id=":1676296250_8_0" index="0" disallow="pedestrian tram rail_urban rail rail_electric rail_fast ship" speed="3.68" length="2.05" shape="3885.04,2889.66 3886.42,2890.20 3886.99,2890.11"/>
    </edge>
    <edge id=":1676296250_11" function="internal">
        <lane id=":1676296250_11_0" index="0" disallow="pedestrian tram rail_urban rail rail_electric rail_fast ship" speed="8.06" length="13.73" shape="3889.92,2895.99 3891.78,2896.89 3895.59,2894.73 3899.70,2888.73"/>
    </edge>
    <edge id=":1676296250_12" function="internal">
        <lane id=":1676296250_12_0" index="0" disallow="pedestrian tram rail_urban rail rail_electric rail_fast ship" speed="3.68" length="2.73" shape="3886.99,2890.11 3887.33,2890.06 3887.76,2889.26 3887.73,2887.78"/>
    </edge>
    <edge id=":1676296250_c0" function="crossing" crossingEdges="155218283#0 -155218283#0">
        <lane id=":1676296250_c0_0" index="0" allow="pedestrian" speed="1.00" length="6.40" width="4.00" shape="3900.16,2891.25 3894.53,2888.22"/>
    </edge>
    <edge id=":1676296250_c1" function="crossing" crossingEdges="42750923#4 -42750923#4">
        <lane id=":1676296250_c1_0" index="0" allow="pedestrian" speed="1.00" length="6.40" width="4.00" shape="3894.79,2904.84 3898.29,2899.48"/>
    </edge>
    <edge id=":1676296250_c2" function="crossing" crossingEdges="-42750923#3 42750923#3">
        <lane id=":1676296250_c2_0" index="0" allow="pedestrian" speed="1.00" length="6.44" width="4.00" shape="3889.97,2889.02 3884.33,2892.12"/>
    </edge>
    <edge id=":1676296250_w0" function="walkingarea">
        <lane id=":1676296250_w0_0" index="0" allow="pedestrian" speed="1.00" length="4.00" width="4.00" shape="3889.01,2887.27 3888.99,2886.05 3891.97,2885.66 3892.83,2885.04 3895.47,2886.46 3894.27,2888.40 3893.13,2889.61 3892.05,2890.09 3891.04,2889.85 3890.09,2888.87"/>
    </edge>
    <edge id=":1676296250_w1" function="walkingarea">
        <lane id=":1676296250_w1_0" index="0" allow="pedestrian" speed="1.00" length="6.83" width="4.00" shape="3901.11,2889.48 3903.75,2890.90 3901.61,2898.06 3899.97,2900.57 3899.01,2899.62 3898.51,2898.31 3898.47,2896.64 3898.89,2894.61 3899.77,2892.23"/>
    </edge>
    <edge id=":1676296250_w2" function="walkingarea">
        <lane id=":1676296250_w2_0" index="0" allow="pedestrian" speed="1.00" length="13.09" width="4.00" shape="3896.47,2905.93 3894.83,2908.44 3881.05,2892.05 3883.83,2890.91 3883.36,2890.37 3885.27,2894.30 3886.74,2897.27 3888.28,2899.54 3890.21,2901.49 3892.83,2903.49"/>
    </edge>
    <edge id=":1677061415_0" function="internal">
        <lane id=":1677061415_0_0" index="0" allow="pedestrian delivery bicycle" speed="3.65" length="4.67" shape="2603.77,5340.00 2603.23,5341.33 2603.35,5342.22 2604.13,5342.66 2605.57,5342.64"/>
    </edge>
    <edge id=":1819651393_0" function="internal">
        <lane id=":1819651393_0_0" index="0" allow="pedestrian delivery bicycle" speed="3.65" length="4.67" shape="2188.68,4090.20 2188.09,4088.88 2187.37,4088.35 2186.52,4088.61 2185.52,4089.66"/>
    </edge>
    <edge id=":1819709391_0" function="internal">
        <lane id=":1819709391_0_0" index="0" allow="pedestrian delivery bicycle" speed="3.65" length="4.67" shape="3469.57,5282.89 3469.69,5284.33 3470.19,5285.07 3471.08,5285.11 3472.37,5284.45"/>
    </edge>
    <edge id=":1819718698_0" function="internal">
        <lane id=":1819718698_0_0" index="0" allow="pedestrian delivery bicycle" speed="5.56" length="6.02" shape="1815.44,3231.70 1815.31,3233.40 1815.61,3234.83 1816.34,3236.00 1817.50,3236.91"/>
    </edge>
    <edge id=":1819718698_1" function="internal">
        <lane id=":1819718698_1_0" index="0" allow="pedestrian delivery bicycle" speed="5.01" length="5.04" shape="1813.29,3238.15 1814.10,3237.03 1815.07,3236.45 1816.20,3236.41 1817.50,3236.91"/>
    </edge>
    <edge id=":1819718698_2" function="internal">
        <lane id=":1819718698_2_0" index="0" allow="pedestrian delivery bicycle" speed="5.56" length="6.88" shape="1811.50,3233.54 1817.50,3236.91"/>
    </edge>
    <edge id=":1819718698_w0" function="walkingarea">
        <lane id=":1819718698_w0_0" index="0" allow="pedestrian" speed="1.00" length="5.49" width="3.20" shape="1813.87,3231.40 1817.01,3232.00 1818.28,3235.52 1816.71,3238.30 1814.71,3238.90 1811.87,3237.41 1810.72,3234.94 1812.28,3232.15 1813.75,3231.83 1813.57,3232.14 1813.33,3232.33 1813.04,3232.39 1812.69,3232.33"/>
    </edge>
    <edge id=":1819718703_0" function="internal">
        <lane id=":1819718703_0_0" index="0" allow="pedestrian delivery bicycle" speed="5.56" length="6.32" shape="1795.88,3270.88 1799.03,3265.40"/>
    </edge>
    <edge id=":1819718703_1" function="internal">
        <lane id=":1819718703_1_0" index="0" allow="pedestrian delivery bicycle" speed="5.01" length="5.05" shape="1794.81,3266.62 1796.11,3267.13 1797.25,3267.10 1798.22,3266.52 1799.03,3265.40"/>
    </edge>
    <edge id=":1819718703_w0" function="walkingarea">
        <lane id=":1819718703_w0_0" index="0" allow="pedestrian" speed="1.00" length="5.04" width="3.20" shape="1797.62,3264.65 1800.45,3266.14 1797.24,3271.73 1794.53,3270.03 1794.02,3268.02 1795.60,3265.23 1797.37,3265.04 1797.08,3265.31 1796.77,3265.46 1796.41,3265.50 1796.02,3265.42"/>
    </edge>
    <edge id=":1819718704_0" function="internal">
        <lane id=":1819718704_0_0" index="0" allow="pedestrian delivery bicycle" speed="5.56" length="6.25" shape="1720.89,3200.55 1718.07,3206.13"/>
    </edge>
    <edge id=":1819718704_1" function="internal">
        <lane id=":1819718704_1_0" index="0" allow="pedestrian delivery bicycle" speed="5.12" length="5.08" shape="1720.89,3200.55 1720.44,3201.84 1720.52,3202.97 1721.13,3203.97 1722.25,3204.82"/>
    </edge>
    <edge id=":1819718704_w0" function="walkingarea">
        <lane id=":1819718704_w0_0" index="0" allow="pedestrian" speed="1.00" length="5.04" width="3.20" shape="1719.48,3199.81 1722.31,3201.30 1723.04,3203.43 1721.47,3206.22 1719.50,3206.83 1716.63,3205.42"/>
    </edge>
    <edge id=":1819718706_0" function="internal">
        <lane id=":1819718706_0_0" index="0" disallow="pedestrian tram rail_urban rail rail_electric rail_fast ship" speed="13.89" length="10.13" shape="1716.21,3161.55 1711.23,3170.38"/>
    </edge>
    <edge id=":1819718706_1" function="internal">
        <lane id=":1819718706_1_0" index="0" allow="delivery bicycle" speed="9.72" length="10.20" shape="1716.21,3161.55 1715.11,3163.99 1714.56,3166.44 1714.57,3168.91 1715.14,3171.40"/>
    </edge>
    <edge id=":1819718706_c0" function="crossing" crossingEdges="322744954#2">
        <lane id=":1819718706_c0_0" index="0" allow="pedestrian" speed="1.00" length="3.20" width="4.00" shape="1716.61,3164.08 1713.83,3162.51"/>
    </edge>
    <edge id=":1819718706_w0" function="walkingarea">
        <lane id=":1819718706_w0_0" index="0" allow="pedestrian" speed="1.00" length="6.97" width="4.00" shape="1709.84,3169.59 1707.22,3168.12 1712.20,3159.29 1714.81,3160.76 1712.84,3164.25"/>
    </edge>
    <edge id=":1819718706_w1" function="walkingarea">
        <lane id=":1819718706_w1_0" index="0" allow="pedestrian" speed="1.00" length="7.46" width="4.00" shape="1715.63,3165.82 1717.60,3162.34 1716.65,3170.89 1713.62,3171.91"/>
    </edge>
    <edge id=":1819718708_0" function="internal">
        <lane id=":1819718708_0_0" index="0" allow="pedestrian delivery bicycle" speed="5.56" length="6.20" shape="1804.71,3254.57 1807.59,3249.07"/>
    </edge>
    <edge id=":1819718708_1" function="internal">
        <lane id=":1819718708_1_0" index="0" allow="pedestrian delivery bicycle" speed="5.01" length="5.04" shape="1803.38,3250.32 1804.68,3250.82 1805.81,3250.78 1806.78,3250.19 1807.59,3249.07"/>
    </edge>
    <edge id=":1819718708_w0" function="walkingarea">
        <lane id=":1819718708_w0_0" index="0" allow="pedestrian" speed="1.00" length="5.01" width="3.20" shape="1806.17,3248.33 1809.01,3249.81 1806.13,3255.31 1803.29,3253.82 1802.60,3251.72 1804.17,3248.92 1805.92,3248.71 1805.64,3248.99 1805.32,3249.14 1804.97,3249.18 1804.59,3249.11"/>
    </edge>
    <edge id=":1819718710_0" function="internal">
        <lane id=":1819718710_0_0" index="0" allow="pedestrian delivery bicycle" speed="5.56" length="6.06" shape="1712.90,3216.69 1712.11,3218.30 1711.54,3219.40 1710.93,3220.47 1710.00,3222.01"/>
    </edge>
    <edge id=":1819718710_1" function="internal">
        <lane id=":1819718710_1_0" index="0" allow="pedestrian delivery bicycle" speed="5.13" length="4.97" shape="1712.90,3216.69 1712.49,3217.97 1712.58,3219.09 1713.16,3220.07 1714.24,3220.90"/>
    </edge>
    <edge id=":1819718710_w0" function="walkingarea">