<?xml version="1.0" encoding="UTF-8"?>

<!-- generated on 2022-01-31 16:15:59 by Eclipse SUMO netedit Version 1.9.2
<configuration xmlns:xsi="http://www.w3.org/2001/XMLSchema-instance" xsi:noNamespaceSchemaLocation="http://sumo.dlr.de/xsd/netconvertConfiguration.xsd">

    <input>
        <sumo-net-file value="C:\Users\OTSLCPS004\Sumo\2022-01-28-09-57-08-Handeda\osm.net.xml"/>
    </input>

    <output>
        <output-file value="C:\Users\OTSLCPS004\Sumo\2022-01-28-09-57-08-Handeda\osm.net.xml"/>
        <output.street-names value="true"/>
    </output>

    <processing>
        <geometry.min-radius.fix.railways value="false"/>
        <geometry.max-grade.fix value="false"/>
        <offset.disable-normalization value="true"/>
        <lefthand value="true"/>
    </processing>

    <junctions>
        <no-internal-links value="false"/>
        <no-turnarounds value="true"/>
        <junctions.corner-detail value="5"/>
        <junctions.limit-turn-speed value="5.5"/>
        <rectangular-lane-cut value="false"/>
    </junctions>

    <pedestrian>
        <walkingareas value="true"/>
    </pedestrian>

    <netedit>
        <additional-files value="C:\Users\OTSLCPS004\Sumo\2022-01-28-09-57-08-Handeda\osm.poly.xml"/>
    </netedit>

    <report>
        <aggregate-warnings value="5"/>
    </report>

</configuration>
-->

<additional xmlns:xsi="http://www.w3.org/2001/XMLSchema-instance" xsi:noNamespaceSchemaLocation="http://sumo.dlr.de/xsd/additional_file.xsd">
    <poly id="1007079206" type="building.yes" color="255,230,230" fill="1" layer="-1.00" shape="3506.712614,3644.042336 3508.760400,3640.278701 3514.400626,3643.326326 3512.352838,3647.089960 3506.712614,3644.042336"/>
    <poly id="1007079207" type="building.yes" color="255,230,230" fill="1" layer="-1.00" shape="3705.795859,3374.367567 3710.232150,3365.771269 3718.625698,3370.060849 3714.189401,3378.657143 3705.795859,3374.367567"/>
    <poly id="105230128" type="aeroway.navigationaid" color="grey" fill="1" layer="-2.00" shape="5423.332238,2313.167703 5570.964502,2047.256339 5566.172276,2044.618692 5570.733597,2036.410167 5584.562562,2044.019141 5579.664237,2052.852943 5575.483594,2050.551779 5428.197298,2315.837668 5423.332238,2313.167703"/>
    <poly id="105230128#1" type="man_made.pier" color="255,230,230" fill="1" layer="-1.00" shape="5423.332238,2313.167703 5570.964502,2047.256339 5566.172276,2044.618692 5570.733597,2036.410167 5584.562562,2044.019141 5579.664237,2052.852943 5575.483594,2050.551779 5428.197298,2315.837668 5423.332238,2313.167703"/>
    <poly id="130970180" type="natural.coastline" color="140,196,107" fill="0" layer="-4.00" shape="5916.371917,2035.087888 5473.224595,1562.986512 5491.168845,1544.177488 5476.851798,1529.275341 5429.690854,1575.028015 5130.378976,2118.498988 5425.100143,2284.703785 5495.414381,2284.640128 5509.607804,2285.677501 5518.845957,2287.828690 5530.390122,2293.224429 5541.447600,2299.613348 5663.676018,2379.547137 5674.289408,2391.221855 5677.390226,2397.218987 5680.746627,2405.609122 5681.806312,2417.521307 5681.480625,2432.589553 5679.197199,2452.218496 5632.790857,2559.305563 5614.000168,2591.192204 5601.049684,2605.925019 5593.546873,2611.540071 5582.466049,2613.681914 5567.901322,2619.382398 5552.351750,2627.612938 5217.062892,3223.600128 5058.704449,3387.637523 4995.264578,3462.477280 4975.655047,3486.321855 4968.828463,3496.754734 4965.141878,3506.705692 4964.340622,3513.127232 4964.004850,3521.295811 4978.116787,3532.927140 4975.254700,3537.621046 4968.763714,3533.906189 4964.097109,3534.839319 4955.062579,3538.155143 4941.122665,3547.365624 4932.449088,3556.500939 4919.119729,3573.413706 4812.195578,3761.456641 4809.906424,3769.260779 4810.264200,3774.070814 4811.996089,3778.564592 4815.856311,3782.888227 4830.015848,3791.745470 4826.587716,3799.075386 4820.106048,3795.371620 4813.677488,3796.026789 4804.919140,3798.174640 4795.616237,3803.246614 4787.521558,3811.498679 4773.078500,3830.699350 4687.226380,3982.157374 4679.184090,4000.625639 4671.232077,4020.546007 4664.489803,4040.795507"/>
    <poly id="130971275" type="natural.coastline" color="140,196,107" fill="0" layer="-4.00" shape="4664.489803,4040.795507 4685.115102,4055.053601 4681.954237,4059.751261 4668.677678,4051.171905 4659.937345,4054.772883 4646.329607,4066.597786 4632.871431,4082.503142 4575.613479,4187.765716 4544.656693,4259.062002 4531.250952,4281.445260 4527.640025,4297.518904 4526.866862,4307.689628 4543.427563,4319.467828 4539.985657,4325.633269 4519.934205,4313.054656 4513.806780,4314.582731 4504.219715,4320.823286 4496.115214,4328.210507 4487.159886,4337.926593 4479.356497,4348.438403 4455.502986,4392.636528 4427.778738,4447.930800 4414.638085,4474.892470 4405.539237,4496.568771 4390.987055,4525.211717 4383.973600,4540.251039 4378.667293,4560.716193 4377.927122,4572.084592 4390.592660,4578.918271 4387.749152,4585.076459 4365.934334,4572.819290 4348.818245,4585.264477 4333.490241,4611.964642 4289.245714,4688.982315 4251.493020,4792.699489 4243.253777,4807.532100 4227.378711,4837.611492 4208.143957,4826.532251 4167.832964,4898.898770"/>
    <poly id="130971290" type="natural.coastline" color="140,196,107" fill="0" layer="-4.00" shape="4167.832964,4898.898770 4150.685803,4932.388412 4137.195888,4965.478254 4124.613709,5000.143304 4111.012935,5033.045974 4095.001960,5080.787571 4092.613328,5095.914630 4101.458188,5103.149750 4096.550570,5108.745440 4076.543298,5095.989816 4049.509792,5115.612590 3989.869874,5222.850115 3972.978863,5272.655021 3945.719118,5364.530541 3930.192010,5359.330094 3922.338243,5359.715044 3910.613327,5365.194966 3898.996305,5372.814554 3888.114602,5380.524956 3780.911680,5572.490542 3777.884494,5579.128226 3775.989569,5585.707602 3774.041806,5593.885043 3771.229929,5629.794910 3795.947730,5643.867412 3792.943705,5649.439865 3764.368589,5634.205700 3759.837405,5634.261480 3755.868807,5635.841191 3753.071030,5637.550701 3747.270547,5641.992817 3738.595010,5649.964681 3728.756386,5665.793736 3689.752684,5737.691867 3676.049075,5778.938659"/>
    <poly id="130971842" type="natural.coastline" color="140,196,107" fill="0" layer="-4.00" shape="3676.049075,5778.938659 3663.512649,5835.457472 3655.651067,5874.890699 3655.189459,5884.503067 3662.585137,5891.112201 3658.105761,5897.568154 3632.421421,5880.046891 3611.136772,5892.256604 3570.934237,5963.792962 3070.803846,5902.228984"/>
    <poly id="130972143" type="natural.coastline" color="140,196,107" fill="0" layer="-4.00" shape="3070.803846,5902.228984 2927.194940,5884.152460"/>
    <poly id="130972728" type="natural.coastline" color="140,196,107" fill="0" layer="-4.00" shape="1378.303611,5601.652884 1421.731280,5574.460785 1480.780517,5537.499122 1539.874991,5500.492929 1660.907474,5424.715558 1722.818620,5385.966944 1767.399485,5358.052187 1790.160719,5390.702785 1923.595758,5582.109570 1947.454152,5616.333139 2023.818300,5725.877581 2045.737641,5757.307960 2078.224432,5803.914955"/>
    <poly id="130972754" type="natural.coastline" color="140,196,107" fill="0" layer="-4.00" shape="2747.985922,5860.419216 2263.084924,5806.686887 1965.085073,5375.944044"/>
    <poly id="130972815" type="natural.coastline" color="140,196,107" fill="0" layer="-4.00" shape="4376.993153,1693.086074 4910.932113,1993.929205"/>
    <poly id="130974591" type="natural.coastline" color="140,196,107" fill="0" layer="-4.00" shape="2927.194940,5884.152460 2894.942349,5883.055024 2747.985922,5860.419216"/>
    <poly id="130974798" type="natural.coastline" color="140,196,107" fill="0" layer="-4.00" shape="1965.085073,5375.944044 1591.960461,4870.341704 1534.369039,4897.466587 1365.037241,5147.894712"/>
    <poly id="130977461" type="natural.coastline" color="140,196,107" fill="0" layer="-4.00" shape="1072.955397,6429.174768 1056.981640,6428.089467 1031.090005,6254.406817 1025.369478,6201.131380 1024.804312,6195.847013 1009.876691,6107.488776 1027.000890,6048.145461 1117.404473,5781.088183 1124.604874,5759.820345 1282.983464,5661.080805 1378.303611,5601.652884"/>
    <poly id="130978214" type="natural.coastline" color="140,196,107" fill="0" layer="-4.00" shape="2078.224432,5803.914955 2081.949712,5809.725618 2084.170338,5808.277928 2150.753034,5904.145654 2149.281531,5905.339918 2162.185632,5924.015035 2162.975063,5923.361767 2368.061235,6218.234004 2375.547645,6210.253377 2379.969634,6205.095361 2477.954007,6341.297127 2513.786185,6395.618076 2526.332251,6421.320148 2509.947220,6439.583957 2499.804325,6463.483062 2492.218722,6462.035586 2492.655547,6457.814719 2336.013290,6460.166565 2336.586253,6482.124018 2305.636107,6482.110771"/>
    <poly id="130979687" type="natural.coastline" color="140,196,107" fill="0" layer="-4.00" shape="4910.932113,1993.929205 4915.636335,1984.842237 4923.010678,1988.779294 5229.399399,1447.744563 5226.292374,1408.390950 4880.389668,1039.035463 4884.365195,1035.603724 4885.277741,989.112853 4865.178153,967.914585 4987.028556,855.092149 4808.060960,664.372490 5042.466159,443.855142"/>
    <poly id="130979698" type="natural.coastline" color="140,196,107" fill="0" layer="-4.00" shape="1365.037241,5147.894712 1358.237198,5159.284264 1348.662124,5172.006638 1130.250071,5307.387743 861.280024,5130.993045 821.091250,5007.123009 788.588873,5010.229470 772.624123,5030.854018 726.584329,5016.426989 658.326100,5079.268745"/>
    <poly id="149844994" type="building.yes" color="255,230,230" fill="1" layer="-1.00" shape="1833.567169,5709.699772 1829.768213,5703.812477 1823.509871,5707.806792 1815.643573,5695.591842 1796.077333,5708.083942 1803.952710,5720.298761 1801.408084,5721.928073 1824.220915,5757.329215 1852.581110,5739.224781 1837.837746,5716.335503 1842.621396,5713.280408 1838.350821,5706.644675 1833.567169,5709.699772"/>
    <poly id="149844996" type="building.yes" color="255,230,230" fill="1" layer="-1.00" shape="1772.841488,5735.132043 1768.147801,5738.130583 1774.525908,5748.034563 1779.219592,5745.036027 1785.080046,5754.136694 1778.839745,5758.119724 1781.557298,5762.334378 1787.797597,5758.351351 1795.099965,5769.685884 1787.879528,5774.291318 1796.420550,5787.551647 1798.776377,5786.046724 1800.005702,5787.950451 1818.960257,5775.843186 1820.993838,5779.001470 1830.435161,5772.970492 1828.401582,5769.812207 1839.542493,5762.706090 1832.822496,5752.273874 1823.147752,5758.485264 1792.570262,5710.302164 1767.249239,5726.460658 1772.841488,5735.132043"/>
    <poly id="149844997" type="building.yes" color="255,230,230" fill="1" layer="-1.00" shape="1737.551919,5716.704802 1749.567010,5709.199350 1745.969733,5703.498144 1733.963699,5711.003488 1737.551919,5716.704802"/>
    <poly id="149844998" type="building.yes" color="255,230,230" fill="1" layer="-1.00" shape="1431.388763,5923.033868 1446.781011,5931.149216 1450.597275,5923.979368 1435.204879,5915.852921 1431.388763,5923.033868"/>
    <poly id="149844999" type="building.yes" color="255,230,230" fill="1" layer="-1.00" shape="1423.186046,5857.420502 1443.084702,5874.320519 1446.872132,5869.902163 1426.973475,5853.002137 1423.186046,5857.420502"/>
    <poly id="149845000" type="building.yes" color="255,230,230" fill="1" layer="-1.00" shape="1360.370157,6067.396285 1371.251789,6067.115176 1370.997538,6057.711282 1360.116034,6058.003482 1360.370157,6067.396285"/>
    <poly id="149845001" type="building.yes" color="255,230,230" fill="1" layer="-1.00" shape="1868.553722,5698.878305 1893.344346,5683.048454 1884.951433,5670.030233 1860.169848,5685.859993 1868.553722,5698.878305"/>
    <poly id="149845002" type="building.yes" color="255,230,230" fill="1" layer="-1.00" shape="1451.275794,5780.390742 1454.484535,5784.011186 1460.177042,5779.003135 1456.959239,5775.382803 1451.275794,5780.390742"/>
    <poly id="149845003" type="building.yes" color="255,230,230" fill="1" layer="-1.00" shape="1375.290160,6017.089197 1390.602509,6018.860101 1394.365385,5986.553552 1379.062044,5984.782526 1375.290160,6017.089197"/>
    <poly id="149845004" type="building.yes" color="255,230,230" fill="1" layer="-1.00" shape="1692.010650,5631.036974 1714.248860,5616.946995 1707.823477,5606.899435 1685.585112,5620.978338 1692.010650,5631.036974"/>
    <poly id="149845005" type="building.yes" color="255,230,230" fill="1" layer="-1.00" shape="1635.005324,5640.205181 1647.263177,5632.541241 1643.157073,5626.025558 1630.899213,5633.689503 1635.005324,5640.205181"/>
    <poly id="149845006" type="building.yes" color="255,230,230" fill="1" layer="-1.00" shape="1483.332499,5793.244301 1503.879971,5819.942742 1520.255106,5807.445689 1499.707796,5780.758304 1483.332499,5793.244301"/>
    <poly id="149845007" type="building.yes" color="255,230,230" fill="1" layer="-1.00" shape="1315.729398,5964.147192 1338.176708,5970.387548 1344.535216,5947.732737 1322.087855,5941.492364 1315.729398,5964.147192"/>
    <poly id="149845008" type="building.yes" color="255,230,230" fill="1" layer="-1.00" shape="1769.804940,5696.066412 1782.748088,5688.116739 1761.684334,5654.169171 1748.750215,5662.118760 1769.804940,5696.066412"/>
    <poly id="149845009" type="building.yes" color="255,230,230" fill="1" layer="-1.00" shape="1467.958478,5775.055975 1454.819578,5756.584434 1448.674502,5760.921487 1461.804347,5779.393133 1467.958478,5775.055975"/>
    <poly id="149845010" type="building.yes" color="255,230,230" fill="1" layer="-1.00" shape="1405.624609,5828.898674 1412.390214,5834.271485 1414.861957,5831.178664 1408.096352,5825.805852 1405.624609,5828.898674"/>
    <poly id="149845011" type="building.yes" color="255,230,230" fill="1" layer="-1.00" shape="1737.600268,5795.022524 1744.938472,5790.415571 1737.282232,5778.331173 1729.944160,5782.949224 1737.600268,5795.022524"/>
    <poly id="149845012" type="building.yes" color="255,230,230" fill="1" layer="-1.00" shape="1853.425950,5618.519737 1881.821898,5601.058378 1872.330777,5585.757617 1843.934796,5603.219005 1853.425950,5618.519737"/>
    <poly id="149845013" type="building.yes" color="255,230,230" fill="1" layer="-1.00" shape="1886.291732,5666.319403 1895.488764,5680.581094 1903.284741,5675.602470 1894.087717,5661.340771 1886.291732,5666.319403"/>
    <poly id="149845014" type="building.yes" color="255,230,230" fill="1" layer="-1.00" shape="1665.681714,5719.303423 1686.726052,5706.160175 1667.351669,5675.408670 1646.307283,5688.551962 1665.681714,5719.303423"/>
    <poly id="149845015" type="building.yes" color="255,230,230" fill="1" layer="-1.00" shape="1462.701976,5851.532423 1486.926154,5832.546937 1469.454653,5810.446859 1445.221386,5829.432505 1462.701976,5851.532423"/>
    <poly id="149845016" type="building.yes" color="255,230,230" fill="1" layer="-1.00" shape="1338.494414,5905.598858 1351.033725,5912.429845 1355.038414,5905.113371 1342.499235,5898.293469 1338.494414,5905.598858"/>
    <poly id="149845017" type="building.yes" color="255,230,230" fill="1" layer="-1.00" shape="1821.586916,5666.453087 1829.097317,5661.832959 1819.301128,5646.059064 1811.799642,5650.667995 1821.586916,5666.453087"/>
    <poly id="149845019" type="building.yes" color="255,230,230" fill="1" layer="-1.00" shape="1611.465279,5913.061852 1645.385581,5891.747540 1629.657094,5866.940725 1595.745792,5888.254982 1611.465279,5913.061852"/>
    <poly id="149845020" type="building.yes" color="255,230,230" fill="1" layer="-1.00" shape="1536.175028,5800.556481 1557.102015,5787.480945 1550.582181,5777.135162 1529.646115,5790.210826 1536.175028,5800.556481"/>
    <poly id="149845021" type="building.yes" color="255,230,230" fill="1" layer="-1.00" shape="1485.092760,5770.314600 1496.747874,5763.035186 1480.498999,5737.258947 1468.852926,5744.538268 1485.092760,5770.314600"/>
    <poly id="149845023" type="building.yes" color="255,230,230" fill="1" layer="-1.00" shape="1778.716547,5794.573675 1788.561458,5788.204795 1778.294224,5772.447941 1768.440240,5778.816945 1778.716547,5794.573675"/>
    <poly id="149845024" type="building.yes" color="255,230,230" fill="1" layer="-1.00" shape="1369.269564,5855.502743 1385.659129,5866.511881 1395.100447,5852.582024 1378.701807,5841.572982 1369.269564,5855.502743"/>
    <poly id="149845025" type="building.yes" color="255,230,230" fill="1" layer="-1.00" shape="1443.091522,5864.769134 1454.012438,5852.451452 1446.038949,5845.440899 1435.118034,5857.758590 1443.091522,5864.769134"/>
    <poly id="149845026" type="building.yes" color="255,230,230" fill="1" layer="-1.00" shape="1394.066659,5914.517634 1424.828360,5929.650284 1427.073661,5925.129281 1396.303026,5910.007829 1394.066659,5914.517634"/>
    <poly id="149845027" type="building.yes" color="255,230,230" fill="1" layer="-1.00" shape="1785.209672,5637.911148 1816.267901,5618.818783 1807.683145,5604.971040 1776.625023,5624.074525 1785.209672,5637.911148"/>
    <poly id="149845028" type="building.yes" color="255,230,230" fill="1" layer="-1.00" shape="1518.886138,5772.785361 1529.530820,5789.690891 1545.709578,5779.592499 1535.055854,5762.687064 1518.886138,5772.785361"/>
    <poly id="149845029" type="building.yes" color="255,230,230" fill="1" layer="-1.00" shape="1897.333102,5684.551570 1906.105038,5698.164091 1912.849040,5693.864239 1904.077110,5680.251711 1897.333102,5684.551570"/>
    <poly id="149845031" type="building.yes" color="255,230,230" fill="1" layer="-1.00" shape="1642.570810,5732.439375 1664.181698,5718.945071 1646.684636,5691.176327 1625.082766,5704.670558 1642.570810,5732.439375"/>
    <poly id="149845032" type="building.yes" color="255,230,230" fill="1" layer="-1.00" shape="1643.819043,5854.305279 1653.638975,5848.125143 1633.213012,5815.900411 1623.383856,5822.069590 1643.819043,5854.305279"/>
    <poly id="149845033" type="building.yes" color="255,230,230" fill="1" layer="-1.00" shape="1747.760998,5745.164110 1757.797171,5760.557750 1765.214612,5755.761237 1755.178447,5740.367588 1747.760998,5745.164110"/>
    <poly id="149845034" type="building.yes" color="255,230,230" fill="1" layer="-1.00" shape="1728.342593,5713.769624 1745.834656,5702.845336 1715.899415,5655.331118 1698.407429,5666.266554 1728.342593,5713.769624"/>
    <poly id="149845035" type="building.yes" color="255,230,230" fill="1" layer="-1.00" shape="1498.026386,5757.306094 1505.508667,5752.630571 1490.443611,5728.736389 1482.970239,5733.400719 1498.026386,5757.306094"/>
    <poly id="149845036" type="building.yes" color="255,230,230" fill="1" layer="-1.00" shape="1458.624395,5864.596071 1449.260927,5875.352206 1472.937989,5895.776823 1482.301322,5885.009620 1458.624395,5864.596071"/>
    <poly id="149845038" type="building.yes" color="255,230,230" fill="1" layer="-1.00" shape="1421.708129,5946.762052 1439.161901,5953.043263 1446.538986,5934.247279 1429.347142,5925.733013 1421.708129,5946.762052"/>
    <poly id="149845040" type="building.yes" color="255,230,230" fill="1" layer="-1.00" shape="1685.020299,5724.807136 1678.250744,5714.053946 1656.423998,5727.684042 1663.202633,5738.437102 1685.020299,5724.807136"/>
    <poly id="149845041" type="building.yes" color="255,230,230" fill="1" layer="-1.00" shape="1379.369476,5840.610563 1392.461373,5849.575659 1405.867344,5830.182441 1392.775434,5821.217324 1379.369476,5840.610563"/>
    <poly id="149845042" type="building.yes" color="255,230,230" fill="1" layer="-1.00" shape="1810.538549,5651.293924 1852.785830,5625.305724 1840.852463,5606.064202 1798.595919,5632.041478 1810.538549,5651.293924"/>
    <poly id="149845043" type="building.yes" color="255,230,230" fill="1" layer="-1.00" shape="1774.269796,5578.621745 1781.742610,5573.891118 1775.132274,5563.546312 1767.659455,5568.276944 1774.269796,5578.621745"/>
    <poly id="149845044" type="building.yes" color="255,230,230" fill="1" layer="-1.00" shape="1628.568621,5674.763779 1647.094891,5663.194002 1629.671704,5635.546387 1611.145397,5647.116198 1628.568621,5674.763779"/>
    <poly id="149845045" type="building.yes" color="255,230,230" fill="1" layer="-1.00" shape="1477.517671,5813.762253 1490.489707,5830.505372 1502.617664,5821.189953 1489.645639,5804.446817 1477.517671,5813.762253"/>
    <poly id="149845046" type="building.yes" color="255,230,230" fill="1" layer="-1.00" shape="1521.872610,5743.561484 1533.051107,5736.576531 1516.154973,5709.776688 1504.985377,5716.750455 1521.872610,5743.561484"/>
    <poly id="149845048" type="building.yes" color="255,230,230" fill="1" layer="-1.00" shape="1443.424192,5880.417547 1435.150590,5891.348583 1458.784845,5909.089131 1467.058597,5898.169207 1443.424192,5880.417547"/>
    <poly id="149845049" type="building.yes" color="255,230,230" fill="1" layer="-1.00" shape="1393.780301,6066.144016 1411.774199,6065.662574 1411.448036,6053.419707 1393.454113,6053.901150 1393.780301,6066.144016"/>
    <poly id="149845050" type="amenity.parking" color="184,184,179" fill="1" layer="-1.00" shape="1599.902346,5874.247485 1622.339023,5860.143660 1603.355637,5830.208284 1580.918910,5844.312155 1599.902346,5874.247485"/>
    <poly id="149845051" type="building.yes" color="255,230,230" fill="1" layer="-1.00" shape="1467.676860,5770.677676 1476.211878,5764.668799 1464.825627,5748.626829 1456.290600,5754.635717 1467.676860,5770.677676"/>
    <poly id="149845052" type="building.yes" color="255,230,230" fill="1" layer="-1.00" shape="1820.881509,5701.305799 1834.432179,5692.649717 1830.392733,5686.377169 1816.842057,5695.033258 1820.881509,5701.305799"/>
    <poly id="149845053" type="building.yes" color="255,230,230" fill="1" layer="-1.00" shape="1395.181372,5818.657802 1405.800965,5827.066068 1413.064373,5817.967003 1402.444916,5809.569820 1395.181372,5818.657802"/>
    <poly id="149845055" type="building.yes" color="255,230,230" fill="1" layer="-1.00" shape="1855.843938,5588.681920 1866.745416,5581.978203 1853.600115,5560.777244 1842.689557,5567.481090 1855.843938,5588.681920"/>
    <poly id="149845056" type="building.yes" color="255,230,230" fill="1" layer="-1.00" shape="1709.745255,5598.244790 1766.353001,5562.391713 1760.010734,5552.465101 1703.403087,5588.329308 1709.745255,5598.244790"/>
    <poly id="149845057" type="building.yes" color="255,230,230" fill="1" layer="-1.00" shape="1344.433243,5898.568653 1359.767206,5907.083947 1380.811857,5869.534751 1365.477853,5861.019421 1344.433243,5898.568653"/>
    <poly id="149845058" type="building.yes" color="255,230,230" fill="1" layer="-1.00" shape="1546.511596,5722.208105 1573.419291,5705.396734 1558.835062,5682.250746 1531.927321,5699.062160 1546.511596,5722.208105"/>
    <poly id="149845059" type="building.yes" color="255,230,230" fill="1" layer="-1.00" shape="1803.166069,5665.474715 1813.968561,5658.838728 1799.417397,5635.392438 1788.623949,5642.028328 1803.166069,5665.474715"/>
    <poly id="149845062" type="building.yes" color="255,230,230" fill="1" layer="-1.00" shape="1424.170612,5810.295033 1429.877888,5815.836469 1433.886876,5811.737027 1428.179600,5806.195589 1424.170612,5810.295033"/>
    <poly id="149845063" type="building.yes" color="255,230,230" fill="1" layer="-1.00" shape="1767.764652,5777.704995 1776.368990,5772.150367 1766.693243,5757.306851 1758.088896,5762.861489 1767.764652,5777.704995"/>
    <poly id="149845064" type="building.yes" color="255,230,230" fill="1" layer="-1.00" shape="1834.676044,5606.474363 1844.498187,5600.438639 1831.759942,5579.898207 1821.937783,5585.933944 1834.676044,5606.474363"/>
    <poly id="149845065" type="building.yes" color="255,230,230" fill="1" layer="-1.00" shape="1463.802400,5856.876638 1484.365277,5881.921943 1504.462198,5865.562005 1483.899344,5840.516654 1463.802400,5856.876638"/>
    <poly id="149845066" type="building.yes" color="255,230,230" fill="1" layer="-1.00" shape="1673.897874,5836.700066 1664.050868,5842.891611 1677.874503,5864.693921 1687.721492,5858.502390 1673.897874,5836.700066"/>
    <poly id="149845069" type="building.yes" color="255,230,230" fill="1" layer="-1.00" shape="1706.737913,5847.015321 1714.399794,5842.204602 1700.511392,5820.292118 1692.849638,5825.113940 1706.737913,5847.015321"/>
    <poly id="149845070" type="building.yes" color="255,230,230" fill="1" layer="-1.00" shape="1692.242576,5729.020729 1706.550843,5720.077612 1695.120548,5701.939291 1680.812122,5710.871334 1692.242576,5729.020729"/>
    <poly id="149845071" type="building.yes" color="255,230,230" fill="1" layer="-1.00" shape="1655.010461,5846.909863 1663.940208,5841.295571 1644.753383,5811.029867 1635.814555,5816.644291 1655.010461,5846.909863"/>
    <poly id="149845072" type="building.yes" color="255,230,230" fill="1" layer="-1.00" shape="1507.062371,5751.490632 1519.410030,5743.781004 1503.752885,5718.929125 1491.405204,5726.638774 1507.062371,5751.490632"/>
    <poly id="149845073" type="building.yes" color="255,230,230" fill="1" layer="-1.00" shape="1601.598778,5807.943988 1620.268473,5796.272502 1600.080125,5764.222349 1581.401324,5775.893990 1601.598778,5807.943988"/>
    <poly id="149845074" type="building.yes" color="255,230,230" fill="1" layer="-1.00" shape="1407.295627,5872.407631 1433.473807,5889.905353 1441.116820,5878.560698 1414.947826,5861.073931 1407.295627,5872.407631"/>
    <poly id="149845076" type="building.yes" color="255,230,230" fill="1" layer="-1.00" shape="1375.101071,5923.519860 1417.052843,5944.147110 1422.188509,5933.787985 1380.245626,5913.149504 1375.101071,5923.519860"/>
    <poly id="149845077" type="building.yes" color="255,230,230" fill="1" layer="-1.00" shape="1756.124282,5656.024877 1761.386022,5652.786254 1759.101174,5649.109750 1753.848356,5652.337169 1756.124282,5656.024877"/>
    <poly id="149845078" type="building.yes" color="255,230,230" fill="1" layer="-1.00" shape="1659.692668,5746.923102 1665.574331,5743.255098 1655.947174,5727.967356 1650.056581,5731.646571 1659.692668,5746.923102"/>
    <poly id="149845079" type="building.yes" color="255,230,230" fill="1" layer="-1.00" shape="1594.019074,5691.504504 1605.296681,5684.462936 1590.897512,5661.614094 1579.619886,5668.655679 1594.019074,5691.504504"/>
    <poly id="149845080" type="building.yes" color="255,230,230" fill="1" layer="-1.00" shape="1642.915198,5887.008440 1653.157813,5880.567853 1639.287994,5858.699600 1629.045362,5865.140202 1642.915198,5887.008440"/>
    <poly id="149845081" type="building.yes" color="255,230,230" fill="1" layer="-1.00" shape="1414.395202,6013.180645 1417.152319,5989.539504 1396.793187,5987.177521 1394.036263,6010.829761 1414.395202,6013.180645"/>
    <poly id="149845082" type="building.yes" color="255,230,230" fill="1" layer="-1.00" shape="1736.406978,5834.307586 1748.016747,5827.017978 1742.986639,5819.082808 1731.376863,5826.372422 1736.406978,5834.307586"/>
    <poly id="149845083" type="building.yes" color="255,230,230" fill="1" layer="-1.00" shape="1756.853018,5593.405470 1775.170626,5581.794216 1763.946913,5564.230069 1745.620220,5575.841459 1756.853018,5593.405470"/>
    <poly id="149845084" type="building.yes" color="255,230,230" fill="1" layer="-1.00" shape="1532.954284,5728.867934 1540.904226,5723.898144 1526.865624,5701.621721 1518.915669,5706.591523 1532.954284,5728.867934"/>
    <poly id="149845085" type="building.yes" color="255,230,230" fill="1" layer="-1.00" shape="1444.540016,5786.044229 1439.675255,5790.564874 1446.087857,5797.417552 1450.961680,5792.896796 1444.540016,5786.044229"/>
    <poly id="149845086" type="building.yes" color="255,230,230" fill="1" layer="-1.00" shape="1438.845615,5909.140099 1454.119375,5917.201483 1457.174292,5911.472240 1441.891463,5903.410964 1438.845615,5909.140099"/>
    <poly id="149845087" type="building.yes" color="255,230,230" fill="1" layer="-1.00" shape="1393.494384,6051.338099 1427.923855,6050.417031 1427.016825,6016.483039 1392.578021,6017.393130 1393.494384,6051.338099"/>
    <poly id="149845088" type="building.yes" color="255,230,230" fill="1" layer="-1.00" shape="1657.297337,5847.136314 1668.069654,5864.129144 1684.679231,5853.692801 1673.897874,5836.700066 1657.297337,5847.136314"/>
    <poly id="149845090" type="building.yes" color="255,230,230" fill="1" layer="-1.00" shape="1363.931782,5976.597439 1405.710941,5984.236586 1408.994936,5966.457155 1368.280943,5954.877574 1363.931782,5976.597439"/>
    <poly id="149845091" type="building.yes" color="255,230,230" fill="1" layer="-1.00" shape="1643.355585,5758.864747 1658.850936,5749.185593 1648.622893,5732.962470 1633.127384,5742.630550 1643.355585,5758.864747"/>
    <poly id="149845092" type="building.yes" color="255,230,230" fill="1" layer="-1.00" shape="1404.880139,5807.176332 1419.739069,5820.434528 1425.200652,5814.364403 1410.341721,5801.106198 1404.880139,5807.176332"/>
    <poly id="149845093" type="building.yes" color="255,230,230" fill="1" layer="-1.00" shape="1285.523470,6055.802854 1313.902728,6063.854320 1338.351227,5978.494532 1309.971727,5970.442983 1285.523470,6055.802854"/>
    <poly id="149845094" type="building.yes" color="255,230,230" fill="1" layer="-1.00" shape="1846.455292,5599.659786 1856.412415,5593.544732 1843.748217,5573.125382 1833.791217,5579.251541 1846.455292,5599.659786"/>
    <poly id="149845095" type="building.yes" color="255,230,230" fill="1" layer="-1.00" shape="1742.532195,5657.038351 1757.984742,5647.537410 1752.915380,5639.369767 1737.471748,5648.859512 1742.532195,5657.038351"/>
    <poly id="149845096" type="building.yes" color="255,230,230" fill="1" layer="-1.00" shape="1489.175797,5837.022533 1508.998056,5861.555816 1536.662902,5839.398943 1516.849877,5814.876577 1489.175797,5837.022533"/>
    <poly id="149845097" type="building.yes" color="255,230,230" fill="1" layer="-1.00" shape="1577.170964,5705.338536 1583.906863,5701.127277 1567.315732,5674.789429 1560.579820,5679.000700 1577.170964,5705.338536"/>
    <poly id="149845098" type="building.yes" color="255,230,230" fill="1" layer="-1.00" shape="1652.995331,5877.008957 1668.156988,5867.478210 1655.794387,5847.987166 1640.641770,5857.517820 1652.995331,5877.008957"/>