<?xml version="1.0" encoding="UTF-8"?>

<!-- generated on 2022-02-08 17:26:06 by Eclipse SUMO duarouter Version 1.9.2
<configuration xmlns:xsi="http://www.w3.org/2001/XMLSchema-instance" xsi:noNamespaceSchemaLocation="http://sumo.dlr.de/xsd/duarouterConfiguration.xsd">

    <input>
        <net-file value="osm.net.xml"/>
        <route-files value="trips.trips.xml"/>
    </input>

    <output>
        <output-file value="random1.rou.xml"/>
        <alternatives-output value="random1.rou.alt.xml"/>
    </output>

    <time>
        <begin value="0"/>
        <end value="20"/>
    </time>

    <report>
        <no-warnings value="true"/>
        <ignore-errors value="true"/>
        <no-step-log value="true"/>
    </report>

</configuration>
-->

<routes xmlns:xsi="http://www.w3.org/2001/XMLSchema-instance" xsi:noNamespaceSchemaLocation="http://sumo.dlr.de/xsd/routes_file.xsd">
    <vehicle id="0a" depart="0.00">
        <route edges="5170996 881624922#0 881624922#1 881624922#2 881624922#4 617999599 828700332#1 849265773#0 849265773#1 882785080 1009203149#1 -669737709#2 -669737709#1 -669737709#0 -42750923#5 -42750923#4 -42750923#3 -42750923#2 -42750923#1 -42750923#0"/>
    </vehicle>
    <vehicle id="1a" depart="1020.00">
        <route edges="322744961 677428366 677423247#1 82592227 262946964 322744954#0 322744954#1 322744954#2 322744954#3 322744954#4 322744963#0 322744963#1 262946987#1"/>
    </vehicle>
    <vehicle id="3a" depart="600.00">
        <route edges="82592227 262946964 322744954#0 322744954#1 322744954#2 322744954#3 322744954#4 82592219 322744961 677428366 677423247#1 262946965#0 262946965#1 262946969#3 262946969#6 926993943 722085187 42747698 42750922#0 42747699#0 42747699#1 42750923#5 669737711 669737709#1 -669737709#1"/>
    </vehicle>
    <vehicle id="5a" depart="5.00">
        <route edges="262946987#1 42747876 887526443 887526445 42751496#0 42751496#1 250506426 250506437 250506423#0 250506423#1 340606270#0 340606270#2 340606270#3 322744967 42748183 42748184 849265773#1 882785080 42751509#1 42751509#2 42751509#3 42751509#4 42751509#5 42751509#6"/>
    </vehicle>
    <vehicle id="6a" depart="600.00">
        <route edges="-42750923#2 -42750923#1 -42750923#0 -42747637#7 -42747637#6 -42747637#5 -42747696#1 -42747696#0 42751509#7 42747538 42750921#1 42752388#1 926993944 24821966#0 24821966#3 262946969#3"/>
    </vehicle>
    <vehicle id="11a" depart="11.00">
        <route edges="42747637#0 42747637#1 -42747697#2 -42747697#1 -42747697#0 42751509#6 42751509#7 42747538 42750921#1 42752388#1 926993944 24821966#0 24821966#3 24821966#4"/>
    </vehicle>
    <vehicle id="12a" depart="1200.00">
        <route edges="882785082 1009203146#0 1009203146#1 42752388#1 926993944 24821966#0 24821966#3 24821966#4 387938685 322744965#0 387938687#0 387938687#1"/>
    </vehicle>
    <vehicle id="13a" depart="13.00">
        <route edges="-669737709#4 -669737709#3 -669737709#2 -669737709#1 -669737709#0 -42750923#5 -42750923#4 155218283#0 155218283#1 155218283#2 820461462 -820461462"/>
    </vehicle>
    <vehicle id="16a" depart="16.00">
        <route edges="45683111 5170833 5170833-AddedOffRampEdge 5170992 5170993 882785082 1009203148 884343942"/>
    </vehicle>
    <vehicle id="17a" depart="1700.00">
        <route edges="42748098 679059342 42751355 679059343 678761499 678761500-AddedOnRampEdge 678761500 45683113"/>
    </vehicle>


    <vehicle id="18a" depart="30.00">
        <route edges="5170996 881624922#0 881624922#1 881624922#2 881624922#4 617999599 828700332#1 849265773#0 849265773#1 882785080 1009203149#1 -669737709#2 -669737709#1 -669737709#0 -42750923#5 -42750923#4 -42750923#3 -42750923#2 -42750923#1 -42750923#0"/>
    </vehicle>
    <vehicle id="19a" depart="100.00">
        <route edges="322744961 677428366 677423247#1 82592227 262946964 322744954#0 322744954#1 322744954#2 322744954#3 322744954#4 322744963#0 322744963#1 262946987#1"/>
    </vehicle>
    <vehicle id="20a" depart="60.00">
        <route edges="82592227 262946964 322744954#0 322744954#1 322744954#2 322744954#3 322744954#4 82592219 322744961 677428366 677423247#1 262946965#0 262946965#1 262946969#3 262946969#6 926993943 722085187 42747698 42750922#0 42747699#0 42747699#1 42750923#5 669737711 669737709#1 -669737709#1"/>
    </vehicle>
    <vehicle id="21a" depart="500.00">
        <route edges="262946987#1 42747876 887526443 887526445 42751496#0 42751496#1 250506426 250506437 250506423#0 250506423#1 340606270#0 340606270#2 340606270#3 322744967 42748183 42748184 849265773#1 882785080 42751509#1 42751509#2 42751509#3 42751509#4 42751509#5 42751509#6"/>
    </vehicle>
    <vehicle id="22a" depart="400.00">
        <route edges="-42750923#2 -42750923#1 -42750923#0 -42747637#7 -42747637#6 -42747637#5 -42747696#1 -42747696#0 42751509#7 42747538 42750921#1 42752388#1 926993944 24821966#0 24821966#3 262946969#3"/>
    </vehicle>
    <vehicle id="23a" depart="110.00">
        <route edges="42747637#0 42747637#1 -42747697#2 -42747697#1 -42747697#0 42751509#6 42751509#7 42747538 42750921#1 42752388#1 926993944 24821966#0 24821966#3 24821966#4"/>
    </vehicle>
    <vehicle id="24a" depart="300.00">
        <route edges="882785082 1009203146#0 1009203146#1 42752388#1 926993944 24821966#0 24821966#3 24821966#4 387938685 322744965#0 387938687#0 387938687#1"/>
    </vehicle>
    <vehicle id="26a" depart="400.00">
        <route edges="-669737709#4 -669737709#3 -669737709#2 -669737709#1 -669737709#0 -42750923#5 -42750923#4 155218283#0 155218283#1 155218283#2 820461462 -820461462"/>
    </vehicle>
    <vehicle id="25a" depart="160.00">
        <route edges="45683111 5170833 5170833-AddedOffRampEdge 5170992 5170993 882785082 1009203148 884343942"/>
    </vehicle>
    <vehicle id="27a" depart="2000.00">
        <route edges="42748098 679059342 42751355 679059343 678761499 678761500-AddedOnRampEdge 678761500 45683113"/>
    </vehicle>


</routes>
