<?xml version="1.0" encoding="UTF-8"?>

<!-- generated on 2022-02-15 07:55:56 by Eclipse SUMO netedit Version 1.9.2
<configuration xmlns:xsi="http://www.w3.org/2001/XMLSchema-instance" xsi:noNamespaceSchemaLocation="http://sumo.dlr.de/xsd/netconvertConfiguration.xsd">

    <input>
        <sumo-net-file value="C:\Users\OTSLCPS004\Sumo\2022-01-28-09-57-08-Handeda\osm.net.xml"/>
    </input>

    <output>
        <output-file value="C:\Users\OTSLCPS004\Sumo\2022-01-28-09-57-08-Handeda\osm.net.xml"/>
        <output.street-names value="true"/>
    </output>

    <processing>
        <geometry.min-radius.fix.railways value="false"/>
        <geometry.max-grade.fix value="false"/>
        <offset.disable-normalization value="true"/>
        <lefthand value="true"/>
    </processing>

    <junctions>
        <no-internal-links value="false"/>
        <no-turnarounds value="true"/>
        <junctions.corner-detail value="5"/>
        <junctions.limit-turn-speed value="5.5"/>
        <rectangular-lane-cut value="false"/>
    </junctions>

    <pedestrian>
        <walkingareas value="true"/>
    </pedestrian>

    <netedit>
        <route-files value="C:\Users\OTSLCPS004\Sumo\2022-01-28-09-57-08-Handeda\terminal.rou.xml"/>
    </netedit>

    <report>
        <aggregate-warnings value="5"/>
    </report>

</configuration>
-->

<routes xmlns:xsi="http://www.w3.org/2001/XMLSchema-instance" xsi:noNamespaceSchemaLocation="http://sumo.dlr.de/xsd/routes_file.xsd">

    <trip id="ve_0" depart="0.00" color="orange" from="42747912" to="42751509#6" via="250506423#1 42751321#2 881624922#4"/>
    <trip id="ve_1" depart="0.00" color="orange" from="340606259" to="340606281"/>
    <trip id="ve_2" depart="0.00" color="orange" from="322744972#1" to="42748309" via="250506419#0"/>
    <trip id="ve_3" depart="0.00" color="orange" from="875753969#1" to="828700334#2" via="250506423#1 42751321#2 828700334#1"/>
    <trip id="ve_4" depart="0.00" color="orange" from="250506423#1" to="722087240" via="42747912 42748096 42747911#1"/>

    <trip id="ve_5" depart="50.00" color="orange" from="42747912" to="42751509#6" via="250506423#1 42751321#2 881624922#4"/>
    <trip id="ve_6" depart="50.00" color="orange" from="340606259" to="340606281"/>
    <trip id="ve_7" depart="50.00" color="orange" from="322744972#1" to="42748309" via="250506419#0"/>
    <trip id="ve_8" depart="50.00" color="orange" from="875753969#1" to="828700334#2" via="250506423#1 42751321#2 828700334#1"/>
    <trip id="ve_9" depart="50.00" color="orange" from="250506423#1" to="722087240" via="42747912 42748096 42747911#1"/>
	
    <trip id="ve_10" depart="100.00" color="orange" from="42747912" to="42751509#6" via="250506423#1 42751321#2 881624922#4"/>
    <trip id="ve_11" depart="100.00" color="orange" from="340606259" to="340606281"/>
    <trip id="ve_12" depart="100.00" color="orange" from="322744972#1" to="42748309" via="250506419#0"/>
    <trip id="ve_13" depart="100.00" color="orange" from="875753969#1" to="828700334#2" via="250506423#1 42751321#2 828700334#1"/>
    <trip id="ve_14" depart="100.00" color="orange" from="250506423#1" to="722087240" via="42747912 42748096 42747911#1"/>

    <trip id="ve_15" depart="150.00" color="orange" from="42747912" to="42751509#6" via="250506423#1 42751321#2 881624922#4"/>
    <trip id="ve_16" depart="150.00" color="orange" from="340606259" to="340606281"/>
    <trip id="ve_17" depart="150.00" color="orange" from="322744972#1" to="42748309" via="250506419#0"/>
    <trip id="ve_18" depart="150.00" color="orange" from="875753969#1" to="828700334#2" via="250506423#1 42751321#2 828700334#1"/>
    <trip id="ve_19" depart="150.00" color="orange" from="250506423#1" to="722087240" via="42747912 42748096 42747911#1"/>

    <trip id="ve_20" depart="200.00" color="orange" from="42747912" to="42751509#6" via="250506423#1 42751321#2 881624922#4"/>
    <trip id="ve_21" depart="200.00" color="orange" from="340606259" to="340606281"/>
    <trip id="ve_22" depart="200.00" color="orange" from="322744972#1" to="42748309" via="250506419#0"/>
    <trip id="ve_23" depart="200.00" color="orange" from="875753969#1" to="828700334#2" via="250506423#1 42751321#2 828700334#1"/>
    <trip id="ve_24" depart="200.00" color="orange" from="250506423#1" to="722087240" via="42747912 42748096 42747911#1"/>
	
    <trip id="ve_25" depart="180.00" color="orange" from="42747912" to="42751509#6" via="250506423#1 42751321#2 881624922#4"/>
    <trip id="ve_26" depart="180.00" color="orange" from="340606259" to="340606281"/>
    <trip id="ve_27" depart="180.00" color="orange" from="322744972#1" to="42748309" via="250506419#0"/>
    <trip id="ve_28" depart="180.00" color="orange" from="875753969#1" to="828700334#2" via="250506423#1 42751321#2 828700334#1"/>
    <trip id="ve_29" depart="180.00" color="orange" from="250506423#1" to="722087240" via="42747912 42748096 42747911#1"/>

    <trip id="ve_30" depart="230.00" color="orange" from="42747912" to="42751509#6" via="250506423#1 42751321#2 881624922#4"/>
    <trip id="ve_31" depart="230.00" color="orange" from="340606259" to="340606281"/>
    <trip id="ve_32" depart="230.00" color="orange" from="322744972#1" to="42748309" via="250506419#0"/>
    <trip id="ve_33" depart="230.00" color="orange" from="875753969#1" to="828700334#2" via="250506423#1 42751321#2 828700334#1"/>
    <trip id="ve_34" depart="230.00" color="orange" from="250506423#1" to="722087240" via="42747912 42748096 42747911#1"/>	
	
    <trip id="ve_35" depart="280.00" color="orange" from="42747912" to="42751509#6" via="250506423#1 42751321#2 881624922#4"/>
    <trip id="ve_36" depart="280.00" color="orange" from="340606259" to="340606281"/>
    <trip id="ve_37" depart="280.00" color="orange" from="322744972#1" to="42748309" via="250506419#0"/>
    <trip id="ve_38" depart="280.00" color="orange" from="875753969#1" to="828700334#2" via="250506423#1 42751321#2 828700334#1"/>
    <trip id="ve_39" depart="280.00" color="orange" from="250506423#1" to="722087240" via="42747912 42748096 42747911#1"/>
	
    <trip id="ve_40" depart="300.00" color="orange" from="42747912" to="42751509#6" via="250506423#1 42751321#2 881624922#4"/>
    <trip id="ve_41" depart="300.00" color="orange" from="340606259" to="340606281"/>
    <trip id="ve_42" depart="300.00" color="orange" from="322744972#1" to="42748309" via="250506419#0"/>
    <trip id="ve_43" depart="300.00" color="orange" from="875753969#1" to="828700334#2" via="250506423#1 42751321#2 828700334#1"/>
    <trip id="ve_44" depart="300.00" color="orange" from="250506423#1" to="722087240" via="42747912 42748096 42747911#1"/>		
	
    <trip id="ve_45" depart="320.00" color="orange" from="42747912" to="42751509#6" via="250506423#1 42751321#2 881624922#4"/>
    <trip id="ve_46" depart="320.00" color="orange" from="340606259" to="340606281"/>
    <trip id="ve_47" depart="320.00" color="orange" from="322744972#1" to="42748309" via="250506419#0"/>
    <trip id="ve_48" depart="320.00" color="orange" from="875753969#1" to="828700334#2" via="250506423#1 42751321#2 828700334#1"/>
    <trip id="ve_49" depart="320.00" color="orange" from="250506423#1" to="722087240" via="42747912 42748096 42747911#1"/>	
	
    <trip id="ve_50" depart="330.00" color="orange" from="42747912" to="42751509#6" via="250506423#1 42751321#2 881624922#4"/>
    <trip id="ve_51" depart="330.00" color="orange" from="340606259" to="340606281"/>
    <trip id="ve_52" depart="330.00" color="orange" from="322744972#1" to="42748309" via="250506419#0"/>
    <trip id="ve_53" depart="330.00" color="orange" from="875753969#1" to="828700334#2" via="250506423#1 42751321#2 828700334#1"/>
    <trip id="ve_54" depart="330.00" color="orange" from="250506423#1" to="722087240" via="42747912 42748096 42747911#1"/>		
	
    <trip id="ve_55" depart="380.00" color="orange" from="42747912" to="42751509#6" via="250506423#1 42751321#2 881624922#4"/>
    <trip id="ve_56" depart="380.00" color="orange" from="340606259" to="340606281"/>
    <trip id="ve_57" depart="380.00" color="orange" from="322744972#1" to="42748309" via="250506419#0"/>
    <trip id="ve_58" depart="380.00" color="orange" from="875753969#1" to="828700334#2" via="250506423#1 42751321#2 828700334#1"/>
    <trip id="ve_59" depart="380.00" color="orange" from="250506423#1" to="722087240" via="42747912 42748096 42747911#1"/>		

	
</routes>
