<?xml version="1.0" encoding="UTF-8"?>

<!-- generated on 2022-02-07 17:51:56 by Eclipse SUMO netedit Version 1.9.2
<configuration xmlns:xsi="http://www.w3.org/2001/XMLSchema-instance" xsi:noNamespaceSchemaLocation="http://sumo.dlr.de/xsd/netconvertConfiguration.xsd">

    <input>
        <sumo-net-file value="C:\Users\OTSLCPS004\Sumo\2022-01-28-09-57-08-Handeda\osm.net.xml"/>
    </input>

    <output>
        <output-file value="C:\Users\OTSLCPS004\Sumo\2022-01-28-09-57-08-Handeda\osm.net.xml"/>
        <output.street-names value="true"/>
    </output>

    <processing>
        <geometry.min-radius.fix.railways value="false"/>
        <geometry.max-grade.fix value="false"/>
        <offset.disable-normalization value="true"/>
        <lefthand value="true"/>
    </processing>

    <junctions>
        <no-internal-links value="false"/>
        <no-turnarounds value="true"/>
        <junctions.corner-detail value="5"/>
        <junctions.limit-turn-speed value="5.5"/>
        <rectangular-lane-cut value="false"/>
    </junctions>

    <pedestrian>
        <walkingareas value="true"/>
    </pedestrian>

    <netedit>
        <route-files value="C:\Users\OTSLCPS004\Sumo\2022-01-28-09-57-08-Handeda\tmc.rou.xml"/>
    </netedit>

    <report>
        <aggregate-warnings value="5"/>
    </report>

</configuration>
-->

<routes xmlns:xsi="http://www.w3.org/2001/XMLSchema-instance" xsi:noNamespaceSchemaLocation="http://sumo.dlr.de/xsd/routes_file.xsd">
    <!--<trip id="vehicle_0" depart="0.00" color="red" from="197914056#0" to="45683113" via="387938687#0 387938687#1 262946962#1 262946962#2 262946987#1 678761500"/>
    <trip id="vehicle_1" depart="0.00" color="green" from="197914056#0" to="45683113" via="387938687#0 387938687#1 262946969#1 262946969#3 262946969#6 926993943 722085187 23334837 42750920 722087240 881581728#1"/>
    <trip id="vehicle_2" depart="0.00" color="green" from="5204786" to="-964816689" via="42752388#1 -535068843#0"/>
    <trip id="vehicle_3" depart="0.00" color="255,0,233" from="45683111" to="322744965#1" via="5170833 42748309 908533349 322744973#1 387938685"/> -->
    <trip id="vehicle_4" depart="0.00" color="red" from="5204786" to="881624921" via="42752388#1 926993944 24821966#0 24821966#3 24821966#4 262946962#1 262946962#2 262946962#3 262946987#1 42747876 887526443"/>
    <trip id="vehicle_5" depart="0.00" color="green" from="42748309" to="250506419#1" via="908533349 322744973#1 262946969#1 262946969#3 262946969#6 926993943 722085187 42747698 340606267#1"/>

    <trip id="vehicle_6" depart="30.00" color="red" from="5204786" to="881624921" via="42752388#1 926993944 24821966#0 24821966#3 24821966#4 262946962#1 262946962#2 262946962#3 262946987#1 42747876 887526443"/>
    <trip id="vehicle_7" depart="30.00" color="green" from="42748309" to="250506419#1" via="908533349 322744973#1 262946969#1 262946969#3 262946969#6 926993943 722085187 42747698 340606267#1"/>

    <trip id="vehicle_8" depart="60.00" color="red" from="5204786" to="881624921" via="42752388#1 926993944 24821966#0 24821966#3 24821966#4 262946962#1 262946962#2 262946962#3 262946987#1 42747876 887526443"/>
    <trip id="vehicle_9" depart="60.00" color="green" from="42748309" to="250506419#1" via="908533349 322744973#1 262946969#1 262946969#3 262946969#6 926993943 722085187 42747698 340606267#1"/>

    <trip id="vehicle_10" depart="90.00" color="red" from="5204786" to="881624921" via="42752388#1 926993944 24821966#0 24821966#3 24821966#4 262946962#1 262946962#2 262946962#3 262946987#1 42747876 887526443"/>
    <trip id="vehicle_11" depart="90.00" color="green" from="42748309" to="250506419#1" via="908533349 322744973#1 262946969#1 262946969#3 262946969#6 926993943 722085187 42747698 340606267#1"/>

    <trip id="vehicle_12" depart="120.00" color="red" from="5204786" to="881624921" via="42752388#1 926993944 24821966#0 24821966#3 24821966#4 262946962#1 262946962#2 262946962#3 262946987#1 42747876 887526443"/>
    <trip id="vehicle_12a" depart="120.00" color="green" from="42748309" to="250506419#1" via="908533349 322744973#1 262946969#1 262946969#3 262946969#6 926993943 722085187 42747698 340606267#1"/>

    <trip id="vehicle_13" depart="150.00" color="red" from="5204786" to="881624921" via="42752388#1 926993944 24821966#0 24821966#3 24821966#4 262946962#1 262946962#2 262946962#3 262946987#1 42747876 887526443"/>
    <trip id="vehicle_14" depart="150.00" color="green" from="42748309" to="250506419#1" via="908533349 322744973#1 262946969#1 262946969#3 262946969#6 926993943 722085187 42747698 340606267#1"/>

    <trip id="vehicle_15" depart="180.00" color="red" from="5204786" to="881624921" via="42752388#1 926993944 24821966#0 24821966#3 24821966#4 262946962#1 262946962#2 262946962#3 262946987#1 42747876 887526443"/>
    <trip id="vehicle_16" depart="180.00" color="green" from="42748309" to="250506419#1" via="908533349 322744973#1 262946969#1 262946969#3 262946969#6 926993943 722085187 42747698 340606267#1"/>

    <trip id="vehicle17" depart="210.00" color="red" from="5204786" to="881624921" via="42752388#1 926993944 24821966#0 24821966#3 24821966#4 262946962#1 262946962#2 262946962#3 262946987#1 42747876 887526443"/>
    <trip id="vehicle_18" depart="210.00" color="green" from="42748309" to="250506419#1" via="908533349 322744973#1 262946969#1 262946969#3 262946969#6 926993943 722085187 42747698 340606267#1"/>

    <trip id="vehicle_19" depart="240.00" color="red" from="5204786" to="881624921" via="42752388#1 926993944 24821966#0 24821966#3 24821966#4 262946962#1 262946962#2 262946962#3 262946987#1 42747876 887526443"/>
    <trip id="vehicle_20" depart="240.00" color="green" from="42748309" to="250506419#1" via="908533349 322744973#1 262946969#1 262946969#3 262946969#6 926993943 722085187 42747698 340606267#1"/>

    <trip id="vehicle_21" depart="270.00" color="red" from="5204786" to="881624921" via="42752388#1 926993944 24821966#0 24821966#3 24821966#4 262946962#1 262946962#2 262946962#3 262946987#1 42747876 887526443"/>
    <trip id="vehicle_22" depart="270.00" color="green" from="42748309" to="250506419#1" via="908533349 322744973#1 262946969#1 262946969#3 262946969#6 926993943 722085187 42747698 340606267#1"/>

    <trip id="vehicle_23" depart="300.00" color="red" from="5204786" to="881624921" via="42752388#1 926993944 24821966#0 24821966#3 24821966#4 262946962#1 262946962#2 262946962#3 262946987#1 42747876 887526443"/>
    <trip id="vehicle_24" depart="300.00" color="green" from="42748309" to="250506419#1" via="908533349 322744973#1 262946969#1 262946969#3 262946969#6 926993943 722085187 42747698 340606267#1"/>

    <trip id="vehicle_25" depart="310.00" color="red" from="5204786" to="881624921" via="42752388#1 926993944 24821966#0 24821966#3 24821966#4 262946962#1 262946962#2 262946962#3 262946987#1 42747876 887526443"/>
    <trip id="vehicle_26" depart="310.00" color="green" from="42748309" to="250506419#1" via="908533349 322744973#1 262946969#1 262946969#3 262946969#6 926993943 722085187 42747698 340606267#1"/>

    <trip id="vehicle_27" depart="330.00" color="red" from="5204786" to="881624921" via="42752388#1 926993944 24821966#0 24821966#3 24821966#4 262946962#1 262946962#2 262946962#3 262946987#1 42747876 887526443"/>
    <trip id="vehicle_28" depart="330.00" color="green" from="42748309" to="250506419#1" via="908533349 322744973#1 262946969#1 262946969#3 262946969#6 926993943 722085187 42747698 340606267#1"/>

    <trip id="vehicle_29" depart="360.00" color="red" from="5204786" to="881624921" via="42752388#1 926993944 24821966#0 24821966#3 24821966#4 262946962#1 262946962#2 262946962#3 262946987#1 42747876 887526443"/>
    <trip id="vehicle_30" depart="360.00" color="green" from="42748309" to="250506419#1" via="908533349 322744973#1 262946969#1 262946969#3 262946969#6 926993943 722085187 42747698 340606267#1"/>

    <trip id="vehicle_31" depart="390.00" color="red" from="5204786" to="881624921" via="42752388#1 926993944 24821966#0 24821966#3 24821966#4 262946962#1 262946962#2 262946962#3 262946987#1 42747876 887526443"/>
    <trip id="vehicle_32" depart="390.00" color="green" from="42748309" to="250506419#1" via="908533349 322744973#1 262946969#1 262946969#3 262946969#6 926993943 722085187 42747698 340606267#1"/>

    <trip id="vehicle_33" depart="420.00" color="red" from="5204786" to="881624921" via="42752388#1 926993944 24821966#0 24821966#3 24821966#4 262946962#1 262946962#2 262946962#3 262946987#1 42747876 887526443"/>
    <trip id="vehicle_34" depart="420.00" color="green" from="42748309" to="250506419#1" via="908533349 322744973#1 262946969#1 262946969#3 262946969#6 926993943 722085187 42747698 340606267#1"/>

    <trip id="vehicle_35" depart="450.00" color="red" from="5204786" to="881624921" via="42752388#1 926993944 24821966#0 24821966#3 24821966#4 262946962#1 262946962#2 262946962#3 262946987#1 42747876 887526443"/>
    <trip id="vehicle_36" depart="450.00" color="green" from="42748309" to="250506419#1" via="908533349 322744973#1 262946969#1 262946969#3 262946969#6 926993943 722085187 42747698 340606267#1"/>

    <trip id="vehicle_37" depart="480.00" color="red" from="5204786" to="881624921" via="42752388#1 926993944 24821966#0 24821966#3 24821966#4 262946962#1 262946962#2 262946962#3 262946987#1 42747876 887526443"/>
    <trip id="vehicle_38" depart="480.00" color="green" from="42748309" to="250506419#1" via="908533349 322744973#1 262946969#1 262946969#3 262946969#6 926993943 722085187 42747698 340606267#1"/>

    <trip id="vehicle_39" depart="510.00" color="red" from="5204786" to="881624921" via="42752388#1 926993944 24821966#0 24821966#3 24821966#4 262946962#1 262946962#2 262946962#3 262946987#1 42747876 887526443"/>
    <trip id="vehicle_40" depart="510.00" color="green" from="42748309" to="250506419#1" via="908533349 322744973#1 262946969#1 262946969#3 262946969#6 926993943 722085187 42747698 340606267#1"/>

    <trip id="vehicle_41" depart="540.00" color="red" from="5204786" to="881624921" via="42752388#1 926993944 24821966#0 24821966#3 24821966#4 262946962#1 262946962#2 262946962#3 262946987#1 42747876 887526443"/>
    <trip id="vehicle_42" depart="540.00" color="green" from="42748309" to="250506419#1" via="908533349 322744973#1 262946969#1 262946969#3 262946969#6 926993943 722085187 42747698 340606267#1"/>

    <trip id="vehicle_43" depart="570.00" color="red" from="5204786" to="881624921" via="42752388#1 926993944 24821966#0 24821966#3 24821966#4 262946962#1 262946962#2 262946962#3 262946987#1 42747876 887526443"/>
    <trip id="vehicle_44" depart="570.00" color="green" from="42748309" to="250506419#1" via="908533349 322744973#1 262946969#1 262946969#3 262946969#6 926993943 722085187 42747698 340606267#1"/>

    <trip id="vehicle_45" depart="600.00" color="red" from="5204786" to="881624921" via="42752388#1 926993944 24821966#0 24821966#3 24821966#4 262946962#1 262946962#2 262946962#3 262946987#1 42747876 887526443"/>
    <trip id="vehicle_46" depart="600.00" color="green" from="42748309" to="250506419#1" via="908533349 322744973#1 262946969#1 262946969#3 262946969#6 926993943 722085187 42747698 340606267#1"/>

    <trip id="vehicle_47" depart="630.00" color="red" from="5204786" to="881624921" via="42752388#1 926993944 24821966#0 24821966#3 24821966#4 262946962#1 262946962#2 262946962#3 262946987#1 42747876 887526443"/>
    <trip id="vehicle_48" depart="630.00" color="green" from="42748309" to="250506419#1" via="908533349 322744973#1 262946969#1 262946969#3 262946969#6 926993943 722085187 42747698 340606267#1"/>

    <trip id="vehicle_49" depart="660.00" color="red" from="5204786" to="881624921" via="42752388#1 926993944 24821966#0 24821966#3 24821966#4 262946962#1 262946962#2 262946962#3 262946987#1 42747876 887526443"/>
    <trip id="vehicle_50" depart="660.00" color="green" from="42748309" to="250506419#1" via="908533349 322744973#1 262946969#1 262946969#3 262946969#6 926993943 722085187 42747698 340606267#1"/>

    <trip id="vehicle_51" depart="690.00" color="red" from="5204786" to="881624921" via="42752388#1 926993944 24821966#0 24821966#3 24821966#4 262946962#1 262946962#2 262946962#3 262946987#1 42747876 887526443"/>
    <trip id="vehicle_52" depart="690.00" color="green" from="42748309" to="250506419#1" via="908533349 322744973#1 262946969#1 262946969#3 262946969#6 926993943 722085187 42747698 340606267#1"/>

    <trip id="vehicle_53" depart="720.00" color="red" from="5204786" to="881624921" via="42752388#1 926993944 24821966#0 24821966#3 24821966#4 262946962#1 262946962#2 262946962#3 262946987#1 42747876 887526443"/>
    <trip id="vehicle_54" depart="720.00" color="green" from="42748309" to="250506419#1" via="908533349 322744973#1 262946969#1 262946969#3 262946969#6 926993943 722085187 42747698 340606267#1"/>

    <trip id="vehicle_55" depart="750.00" color="red" from="5204786" to="881624921" via="42752388#1 926993944 24821966#0 24821966#3 24821966#4 262946962#1 262946962#2 262946962#3 262946987#1 42747876 887526443"/>
    <trip id="vehicle_56" depart="750.00" color="green" from="42748309" to="250506419#1" via="908533349 322744973#1 262946969#1 262946969#3 262946969#6 926993943 722085187 42747698 340606267#1"/>

    <trip id="vehicle_57" depart="780.00" color="red" from="5204786" to="881624921" via="42752388#1 926993944 24821966#0 24821966#3 24821966#4 262946962#1 262946962#2 262946962#3 262946987#1 42747876 887526443"/>
    <trip id="vehicle_58" depart="780.00" color="green" from="42748309" to="250506419#1" via="908533349 322744973#1 262946969#1 262946969#3 262946969#6 926993943 722085187 42747698 340606267#1"/>

    <trip id="vehicle_59" depart="810.00" color="red" from="5204786" to="881624921" via="42752388#1 926993944 24821966#0 24821966#3 24821966#4 262946962#1 262946962#2 262946962#3 262946987#1 42747876 887526443"/>
    <trip id="vehicle_60" depart="810.00" color="green" from="42748309" to="250506419#1" via="908533349 322744973#1 262946969#1 262946969#3 262946969#6 926993943 722085187 42747698 340606267#1"/>

    <trip id="vehicle_61" depart="840.00" color="red" from="5204786" to="881624921" via="42752388#1 926993944 24821966#0 24821966#3 24821966#4 262946962#1 262946962#2 262946962#3 262946987#1 42747876 887526443"/>
    <trip id="vehicle_62" depart="840.00" color="green" from="42748309" to="250506419#1" via="908533349 322744973#1 262946969#1 262946969#3 262946969#6 926993943 722085187 42747698 340606267#1"/>

    <trip id="vehicle_63" depart="870.00" color="red" from="5204786" to="881624921" via="42752388#1 926993944 24821966#0 24821966#3 24821966#4 262946962#1 262946962#2 262946962#3 262946987#1 42747876 887526443"/>
    <trip id="vehicle_64" depart="870.00" color="green" from="42748309" to="250506419#1" via="908533349 322744973#1 262946969#1 262946969#3 262946969#6 926993943 722085187 42747698 340606267#1"/>

    <trip id="vehicle_65" depart="900.00" color="red" from="5204786" to="881624921" via="42752388#1 926993944 24821966#0 24821966#3 24821966#4 262946962#1 262946962#2 262946962#3 262946987#1 42747876 887526443"/>
    <trip id="vehicle_66" depart="900.00" color="green" from="42748309" to="250506419#1" via="908533349 322744973#1 262946969#1 262946969#3 262946969#6 926993943 722085187 42747698 340606267#1"/>

    <trip id="vehicle_67" depart="930.00" color="red" from="5204786" to="881624921" via="42752388#1 926993944 24821966#0 24821966#3 24821966#4 262946962#1 262946962#2 262946962#3 262946987#1 42747876 887526443"/>
    <trip id="vehicle_68" depart="930.00" color="green" from="42748309" to="250506419#1" via="908533349 322744973#1 262946969#1 262946969#3 262946969#6 926993943 722085187 42747698 340606267#1"/>

    <trip id="vehicle_69" depart="960.00" color="red" from="5204786" to="881624921" via="42752388#1 926993944 24821966#0 24821966#3 24821966#4 262946962#1 262946962#2 262946962#3 262946987#1 42747876 887526443"/>
    <trip id="vehicle_70" depart="960.00" color="green" from="42748309" to="250506419#1" via="908533349 322744973#1 262946969#1 262946969#3 262946969#6 926993943 722085187 42747698 340606267#1"/>

    <trip id="vehicle_71" depart="990.00" color="red" from="5204786" to="881624921" via="42752388#1 926993944 24821966#0 24821966#3 24821966#4 262946962#1 262946962#2 262946962#3 262946987#1 42747876 887526443"/>
    <trip id="vehicle_72" depart="990.00" color="green" from="42748309" to="250506419#1" via="908533349 322744973#1 262946969#1 262946969#3 262946969#6 926993943 722085187 42747698 340606267#1"/>

    <trip id="vehicle_73" depart="1020.00" color="red" from="5204786" to="881624921" via="42752388#1 926993944 24821966#0 24821966#3 24821966#4 262946962#1 262946962#2 262946962#3 262946987#1 42747876 887526443"/>
    <trip id="vehicle_74" depart="1020.00" color="green" from="42748309" to="250506419#1" via="908533349 322744973#1 262946969#1 262946969#3 262946969#6 926993943 722085187 42747698 340606267#1"/>

    <trip id="vehicle_75" depart="1050.00" color="red" from="5204786" to="881624921" via="42752388#1 926993944 24821966#0 24821966#3 24821966#4 262946962#1 262946962#2 262946962#3 262946987#1 42747876 887526443"/>
    <trip id="vehicle_76" depart="1050.00" color="green" from="42748309" to="250506419#1" via="908533349 322744973#1 262946969#1 262946969#3 262946969#6 926993943 722085187 42747698 340606267#1"/>

    <trip id="vehicle_77" depart="1080.00" color="red" from="5204786" to="881624921" via="42752388#1 926993944 24821966#0 24821966#3 24821966#4 262946962#1 262946962#2 262946962#3 262946987#1 42747876 887526443"/>
    <trip id="vehicle_78" depart="1080.00" color="green" from="42748309" to="250506419#1" via="908533349 322744973#1 262946969#1 262946969#3 262946969#6 926993943 722085187 42747698 340606267#1"/>

    <trip id="vehicle_79" depart="1110.00" color="red" from="5204786" to="881624921" via="42752388#1 926993944 24821966#0 24821966#3 24821966#4 262946962#1 262946962#2 262946962#3 262946987#1 42747876 887526443"/>
    <trip id="vehicle_80" depart="1110.00" color="green" from="42748309" to="250506419#1" via="908533349 322744973#1 262946969#1 262946969#3 262946969#6 926993943 722085187 42747698 340606267#1"/>

    <trip id="vehicle_81" depart="1140.00" color="red" from="5204786" to="881624921" via="42752388#1 926993944 24821966#0 24821966#3 24821966#4 262946962#1 262946962#2 262946962#3 262946987#1 42747876 887526443"/>
    <trip id="vehicle_82" depart="1140.00" color="green" from="42748309" to="250506419#1" via="908533349 322744973#1 262946969#1 262946969#3 262946969#6 926993943 722085187 42747698 340606267#1"/>

    <trip id="vehicle_83" depart="1170.00" color="red" from="5204786" to="881624921" via="42752388#1 926993944 24821966#0 24821966#3 24821966#4 262946962#1 262946962#2 262946962#3 262946987#1 42747876 887526443"/>
    <trip id="vehicle_84" depart="1170.00" color="green" from="42748309" to="250506419#1" via="908533349 322744973#1 262946969#1 262946969#3 262946969#6 926993943 722085187 42747698 340606267#1"/>

    <trip id="vehicle_86" depart="1200.00" color="red" from="5204786" to="881624921" via="42752388#1 926993944 24821966#0 24821966#3 24821966#4 262946962#1 262946962#2 262946962#3 262946987#1 42747876 887526443"/>
    <trip id="vehicle_87" depart="1200.00" color="green" from="42748309" to="250506419#1" via="908533349 322744973#1 262946969#1 262946969#3 262946969#6 926993943 722085187 42747698 340606267#1"/>

    <trip id="vehicle_88" depart="1230.00" color="red" from="5204786" to="881624921" via="42752388#1 926993944 24821966#0 24821966#3 24821966#4 262946962#1 262946962#2 262946962#3 262946987#1 42747876 887526443"/>
    <trip id="vehicle_89" depart="1230.00" color="green" from="42748309" to="250506419#1" via="908533349 322744973#1 262946969#1 262946969#3 262946969#6 926993943 722085187 42747698 340606267#1"/>

    <trip id="vehicle_90" depart="1260.00" color="red" from="5204786" to="881624921" via="42752388#1 926993944 24821966#0 24821966#3 24821966#4 262946962#1 262946962#2 262946962#3 262946987#1 42747876 887526443"/>
    <trip id="vehicle_91" depart="1260.00" color="green" from="42748309" to="250506419#1" via="908533349 322744973#1 262946969#1 262946969#3 262946969#6 926993943 722085187 42747698 340606267#1"/>

    <trip id="vehicle_92" depart="1290.00" color="red" from="5204786" to="881624921" via="42752388#1 926993944 24821966#0 24821966#3 24821966#4 262946962#1 262946962#2 262946962#3 262946987#1 42747876 887526443"/>
    <trip id="vehicle_93" depart="1290.00" color="green" from="42748309" to="250506419#1" via="908533349 322744973#1 262946969#1 262946969#3 262946969#6 926993943 722085187 42747698 340606267#1"/>

    <trip id="vehicle_94" depart="1320.00" color="red" from="5204786" to="881624921" via="42752388#1 926993944 24821966#0 24821966#3 24821966#4 262946962#1 262946962#2 262946962#3 262946987#1 42747876 887526443"/>
    <trip id="vehicle_95" depart="1320.00" color="green" from="42748309" to="250506419#1" via="908533349 322744973#1 262946969#1 262946969#3 262946969#6 926993943 722085187 42747698 340606267#1"/>

    <trip id="vehicle_96" depart="1350.00" color="red" from="5204786" to="881624921" via="42752388#1 926993944 24821966#0 24821966#3 24821966#4 262946962#1 262946962#2 262946962#3 262946987#1 42747876 887526443"/>
    <trip id="vehicle_97" depart="1350.00" color="green" from="42748309" to="250506419#1" via="908533349 322744973#1 262946969#1 262946969#3 262946969#6 926993943 722085187 42747698 340606267#1"/>

    <trip id="vehicle_98" depart="1380.00" color="red" from="5204786" to="881624921" via="42752388#1 926993944 24821966#0 24821966#3 24821966#4 262946962#1 262946962#2 262946962#3 262946987#1 42747876 887526443"/>
    <trip id="vehicle_99" depart="1380.00" color="green" from="42748309" to="250506419#1" via="908533349 322744973#1 262946969#1 262946969#3 262946969#6 926993943 722085187 42747698 340606267#1"/>

    <trip id="vehicle_100" depart="1410.00" color="red" from="5204786" to="881624921" via="42752388#1 926993944 24821966#0 24821966#3 24821966#4 262946962#1 262946962#2 262946962#3 262946987#1 42747876 887526443"/>
    <trip id="vehicle_101" depart="1410.00" color="green" from="42748309" to="250506419#1" via="908533349 322744973#1 262946969#1 262946969#3 262946969#6 926993943 722085187 42747698 340606267#1"/>

    <trip id="vehicle_102" depart="1440.00" color="red" from="5204786" to="881624921" via="42752388#1 926993944 24821966#0 24821966#3 24821966#4 262946962#1 262946962#2 262946962#3 262946987#1 42747876 887526443"/>
    <trip id="vehicle_103" depart="1440.00" color="green" from="42748309" to="250506419#1" via="908533349 322744973#1 262946969#1 262946969#3 262946969#6 926993943 722085187 42747698 340606267#1"/>

    <trip id="vehicle_104" depart="1470.00" color="red" from="5204786" to="881624921" via="42752388#1 926993944 24821966#0 24821966#3 24821966#4 262946962#1 262946962#2 262946962#3 262946987#1 42747876 887526443"/>
    <trip id="vehicle_105" depart="1470.00" color="green" from="42748309" to="250506419#1" via="908533349 322744973#1 262946969#1 262946969#3 262946969#6 926993943 722085187 42747698 340606267#1"/>

</routes>




