<?xml version="1.0" encoding="UTF-8"?>

<!-- generated on 2022-02-07 12:09:46 by Eclipse SUMO netedit Version 1.9.2
<configuration xmlns:xsi="http://www.w3.org/2001/XMLSchema-instance" xsi:noNamespaceSchemaLocation="http://sumo.dlr.de/xsd/netconvertConfiguration.xsd">

    <input>
        <sumo-net-file value="C:\Users\OTSLCPS004\Sumo\2022-01-28-10-41-57-odaiba\osm.net.xml"/>
    </input>

    <output>
        <output-file value="C:\Users\OTSLCPS004\Sumo\2022-01-28-10-41-57-odaiba\osm.net.xml"/>
        <output.street-names value="true"/>
    </output>

    <processing>
        <geometry.min-radius.fix.railways value="false"/>
        <geometry.max-grade.fix value="false"/>
        <offset.disable-normalization value="true"/>
        <lefthand value="true"/>
    </processing>

    <junctions>
        <no-internal-links value="false"/>
        <no-turnarounds value="true"/>
        <junctions.corner-detail value="5"/>
        <junctions.limit-turn-speed value="5.5"/>
        <rectangular-lane-cut value="false"/>
    </junctions>

    <pedestrian>
        <walkingareas value="true"/>
    </pedestrian>

    <netedit>
        <route-files value="C:\Users\OTSLCPS004\Sumo\2022-01-28-10-41-57-odaiba\boundary.rou.xml"/>
    </netedit>

    <report>
        <aggregate-warnings value="5"/>
    </report>

</configuration>
-->

<routes xmlns:xsi="http://www.w3.org/2001/XMLSchema-instance" xsi:noNamespaceSchemaLocation="http://sumo.dlr.de/xsd/routes_file.xsd">
    <trip id="vehicle_0" depart="0.00" color="red" from="27242140#1" to="257239011#1" via="-265010620#1 265010598#1 265010598#4 266086974#1 266086974#2 333682044#1 265010574 265010581#0 265010581#1 62066584 62066589#0 62066589#1 354858483#1 354858483#4 354858483#5 354858483#7 461203108#1 333682046#1 333682046#2 353940882#0 353940882#1 353940882#2 1015181076#0 354858493 354858498#1 285454834#1 998621643#2 171300277#1 171300277#2"/>
    <trip id="vehicle_1" depart="0.00" color="red" from="-27242140#1" to="-27241669#4" via="-265010620#2 -265010620#1 265010598#1 266086974#1 333682044#1 62066589#0 62066589#1 354858483#1 354858483#4 354858483#5 354858483#7 461203108#1 333682046#1 353940882#0 353940882#1 353940882#2 1015181076#0 354858493 354858498#1 285454834#1 998621643#2 171300277#1 171300277#2 257239011#1"/>
    <trip id="vehicle_2" depart="0.00" color="green" from="-27242140#1" to="810346011#3" via="27241668#0 27241668#1 27241668#4 27241668#5 27241668#6 27241668#7 27241668#8 27241668#9 27241668#10 -265010604 265010601#0 265010601#1 -265010591 265010621#0 265010621#1 265010621#3 333682042#3 333682045 987049868#0 265010588#1 265010588#4 265010617#1 810346011#1 810346011#2"/>
    <trip id="vehicle_3" depart="0.00" color="orange" from="-27242140#1" to="682445848#2" via="-27242140#0 -265010620#2 -265010620#1 265010598#1 265010598#4 265010598#5 266086974#0 266086974#1 266086974#2 333682044#1 265010574 265010581#0 265010581#1 62066584 62066589#0 62066589#1 354858483#1 354858483#4 354858483#5 -27241677#10 -27241677#9 -27241677#8 -27241677#7 -27241677#6 -27241677#5 -27241677#4 -27241677#3 -27241677#2 -27241677#1 -27241677#0 353940882#2 1015181076#0 354858493 354858498#1 285454834#1 998621643#2 171300277#1 171300277#2 257239019#2"/>
    <trip id="vehicle_4" depart="0.00" color="0,245,255" from="-27242140#1" to="171300268#3" via="-27242140#0 -265010620#1 265010598#1 265010598#4 265010598#5 266086974#0 266086974#1 266086974#2 333682044#1 265010574 265010581#0 265010581#1 62066584 62066589#0 62066589#1 354858483#1 -1015181077#6 -1015181077#5 -1015181077#4 -1015181077#3 -1015181077#1 -1015181077#0 1015181076#0 354858493 354858498#1 285454834#1 998621643#2 171300268#1 171300268#2"/>
    <trip id="vehicle_5" depart="0.00" color="250,0,255" from="-27242140#1" to="-149835645#1" via="-27242140#0 -265010620#2 -265010620#1 265010598#1 265010598#4 265010598#5 266086974#1 266086974#2 333682044#1 265010574 265010581#0 265010581#1 62066584 62066589#0 62066589#1 354858483#1 333682049#1 333682049#5 333682049#7 333682049#8 333682049#9 333682049#10 333682049#11 333682049#12 333682049#13 333682049#15 333682049#16 461203108#1 333682046#1 333682046#2 353940877#0 -149835636#3 -149835636#2 -149835636#1 -149835636#0 -149835645#5 -149835645#4 -149835645#3 -149835645#2"/>
    <trip id="vehicle_6" depart="0.00" from="198900391#0" to="27242140#1" via="198900391#1 257239016#0 257239016#1 171300278#2 353940876#1 353940876#2 461203109#1 333682043#1 333682043#3 333682043#4 333682043#5 333682043#6 333682043#7 1015181078#1 1015181078#3 651639707#1 651639707#2 651639707#3 62066588 333682042#3 987049868#0 265010588#1 265010588#4 265010620#1"/>
    <trip id="vehicle_7" depart="0.00" color="255,106,0" from="198900391#0" to="27242140#1" via="257239016#1 171300278#2 24059844 817912283#2 353940876#1 461203109#1 333682043#1 333682043#3 333682043#7 1015181078#3 461222309#2 354858484#1 651639707#1 651639707#2 651639707#3 265010612 265010595 651637968#0 651637968#1 266086971#1 266086971#2 986165964 45177385#1 265010620#1"/>
</routes>
