<?xml version="1.0" encoding="UTF-8"?>

<!-- generated on 2022-01-28 10:42:13 by Eclipse SUMO duarouter Version 1.9.2
<configuration xmlns:xsi="http://www.w3.org/2001/XMLSchema-instance" xsi:noNamespaceSchemaLocation="http://sumo.dlr.de/xsd/duarouterConfiguration.xsd">

    <input>
        <net-file value="C:\Users\OTSLCPS004\Sumo\2022-01-28-10-41-57\osm.net.xml"/>
        <route-files value="C:\Users\OTSLCPS004\Sumo\2022-01-28-10-41-57\osm.passenger.trips.xml"/>
    </input>

    <output>
        <output-file value="C:\Users\OTSLCPS004\Sumo\2022-01-28-10-41-57\osm.passenger.trips.xml.tmp"/>
        <write-trips value="true"/>
    </output>

    <time>
        <begin value="0"/>
        <end value="3600"/>
    </time>

    <report>
        <no-warnings value="true"/>
        <ignore-errors value="true"/>
        <no-step-log value="true"/>
    </report>

</configuration>
-->

<routes xmlns:xsi="http://www.w3.org/2001/XMLSchema-instance" xsi:noNamespaceSchemaLocation="http://sumo.dlr.de/xsd/routes_file.xsd">
    <vType id="veh_passenger" vClass="passenger"/>
    <trip id="veh0" type="veh_passenger" depart="0.00" departLane="best" from="353940877#0" to="-149122118#6"/>
    <trip id="veh1" type="veh_passenger" depart="2.16" departLane="best" departSpeed="max" from="157345939" to="1015181078#3"/>
    <trip id="veh2" type="veh_passenger" depart="4.32" departLane="best" from="405795843#2" to="354858505#1"/>
    <trip id="veh3" type="veh_passenger" depart="6.48" departLane="best" from="651639707#2" to="-27241668#0"/>
    <trip id="veh4" type="veh_passenger" depart="8.64" departLane="best" from="266086964" to="-149122118#9"/>
    <trip id="veh5" type="veh_passenger" depart="10.80" departLane="best" from="-149122118#7" to="-682459916#1"/>
    <trip id="veh6" type="veh_passenger" depart="12.96" departLane="best" from="353940882#2" to="333682043#3"/>
    <trip id="veh7" type="veh_passenger" depart="15.12" departLane="best" from="1015181078#3" to="333682049#15"/>
    <trip id="veh8" type="veh_passenger" depart="17.28" departLane="best" departSpeed="max" from="4854085" to="-1015181077#4"/>
    <trip id="veh9" type="veh_passenger" depart="19.44" departLane="best" departSpeed="max" from="4854085" to="400919425#2"/>
    <trip id="veh10" type="veh_passenger" depart="21.60" departLane="best" from="257239016#0" to="-333682049#12"/>
    <trip id="veh11" type="veh_passenger" depart="23.76" departLane="best" departSpeed="max" from="820214408" to="265010581#0"/>
    <trip id="veh12" type="veh_passenger" depart="25.92" departLane="best" from="59254382#1" to="333682052#1"/>
    <trip id="veh13" type="veh_passenger" depart="28.09" departLane="best" departSpeed="max" from="4854085" to="405795843#1"/>
    <trip id="veh15" type="veh_passenger" depart="32.41" departLane="best" from="265010598#4" to="333682043#5"/>
    <trip id="veh16" type="veh_passenger" depart="34.57" departLane="best" from="582338491#0" to="353940876#0"/>
    <trip id="veh17" type="veh_passenger" depart="36.73" departLane="best" from="59254388#3" to="333682049#1"/>
    <trip id="veh18" type="veh_passenger" depart="38.89" departLane="best" from="400919425#0" to="-149835645#11"/>
    <trip id="veh19" type="veh_passenger" depart="41.05" departLane="best" from="149122118#2" to="171300268#3"/>
    <trip id="veh20" type="veh_passenger" depart="43.21" departLane="best" from="-265010621#1" to="149122118#4"/>
    <trip id="veh21" type="veh_passenger" depart="45.37" departLane="best" from="-27241668#8" to="157345942#1"/>
    <trip id="veh22" type="veh_passenger" depart="47.53" departLane="best" from="353940876#2" to="265010598#4"/>
    <trip id="veh23" type="veh_passenger" depart="49.69" departLane="best" from="265010588#4" to="1015181077#3"/>
    <trip id="veh24" type="veh_passenger" depart="51.85" departLane="best" from="149835645#7" to="810346011#3"/>
    <trip id="veh25" type="veh_passenger" depart="54.01" departLane="best" from="-333682049#9" to="405795843#1"/>
    <trip id="veh26" type="veh_passenger" depart="56.17" departLane="best" from="-333682049#17" to="265010617#1"/>
    <trip id="veh27" type="veh_passenger" depart="58.33" departLane="best" from="987049868#1" to="353940885"/>
    <trip id="veh28" type="veh_passenger" depart="60.49" departLane="best" from="333682043#3" to="397862664#0"/>
    <trip id="veh30" type="veh_passenger" depart="64.81" departLane="best" departSpeed="max" from="23350417#0" to="149835645#6"/>
    <trip id="veh31" type="veh_passenger" depart="66.97" departLane="best" from="1015181077#5" to="810346011#3"/>
    <trip id="veh32" type="veh_passenger" depart="69.13" departLane="best" from="62066589#0" to="24835448"/>
    <trip id="veh33" type="veh_passenger" depart="71.29" departLane="best" from="354858483#1" to="266086958#2"/>
    <trip id="veh34" type="veh_passenger" depart="73.45" departLane="best" from="721120031#1" to="27241668#3"/>
    <trip id="veh35" type="veh_passenger" depart="75.61" departLane="best" from="333682043#4" to="149835645#4"/>
    <trip id="veh36" type="veh_passenger" depart="77.77" departLane="best" from="333682046#1" to="682445838"/>
    <trip id="veh37" type="veh_passenger" depart="79.94" departLane="best" departSpeed="max" from="265010616#0" to="1015181078#1"/>
    <trip id="veh38" type="veh_passenger" depart="82.10" departLane="best" from="998621643#1" to="27241677#7"/>
    <trip id="veh39" type="veh_passenger" depart="84.26" departLane="best" from="-27241668#2" to="-149835645#2"/>
    <trip id="veh40" type="veh_passenger" depart="86.42" departLane="best" from="-27241669#3" to="353940877#0"/>
    <trip id="veh41" type="veh_passenger" depart="88.58" departLane="best" departSpeed="max" from="4853035#0" to="266086980"/>
    <trip id="veh42" type="veh_passenger" depart="90.74" departLane="best" from="-171300268#2" to="265010620#1"/>
    <trip id="veh43" type="veh_passenger" depart="92.90" departLane="best" from="987136270" to="333682042#1"/>
    <trip id="veh44" type="veh_passenger" depart="95.06" departLane="best" from="849983642#0" to="62066585#1"/>
    <trip id="veh45" type="veh_passenger" depart="97.22" departLane="best" from="-1015181077#7" to="405795842#0"/>
    <trip id="veh46" type="veh_passenger" depart="99.38" departLane="best" from="354858487#4" to="333682042#3"/>
    <trip id="veh47" type="veh_passenger" depart="101.54" departLane="best" from="149835645#7" to="353940886"/>
    <trip id="veh48" type="veh_passenger" depart="103.70" departLane="best" from="-27241669#4" to="266086980"/>
    <trip id="veh50" type="veh_passenger" depart="108.02" departLane="best" from="62066589#0" to="149835645#4"/>
    <trip id="veh51" type="veh_passenger" depart="110.18" departLane="best" from="27241673#1" to="-333682053#4"/>
    <trip id="veh52" type="veh_passenger" depart="112.34" departLane="best" from="682459916#1" to="62066589#1"/>
    <trip id="veh53" type="veh_passenger" depart="114.50" departLane="best" departSpeed="max" from="198900391#0" to="353940885"/>
    <trip id="veh55" type="veh_passenger" depart="118.82" departLane="best" from="-1015181077#0" to="257239016#0"/>
    <trip id="veh57" type="veh_passenger" depart="123.14" departLane="best" from="62066589#1" to="59254382#5"/>
    <trip id="veh58" type="veh_passenger" depart="125.30" departLane="best" from="198900391#1" to="-149835645#7"/>
    <trip id="veh59" type="veh_passenger" depart="127.46" departLane="best" from="62066589#1" to="817912283#2"/>
    <trip id="veh60" type="veh_passenger" depart="129.62" departLane="best" from="-27241668#0" to="27241673#0"/>
    <trip id="veh61" type="veh_passenger" depart="131.78" departLane="best" from="-265010601#0" to="461203108#1"/>
    <trip id="veh62" type="veh_passenger" depart="133.95" departLane="best" from="27241668#5" to="333682043#4"/>
    <trip id="veh63" type="veh_passenger" depart="136.11" departLane="best" from="149835645#6" to="62066589#1"/>
    <trip id="veh64" type="veh_passenger" depart="138.27" departLane="best" from="266086964" to="1015181077#4"/>
    <trip id="veh65" type="veh_passenger" depart="140.43" departLane="best" from="333682042#0" to="405795843#1"/>
    <trip id="veh66" type="veh_passenger" depart="142.59" departLane="best" from="1015181076#0" to="24059844"/>
    <trip id="veh67" type="veh_passenger" depart="144.75" departLane="best" from="987136270" to="354858483#5"/>
    <trip id="veh68" type="veh_passenger" depart="146.91" departLane="best" from="266086974#0" to="27241686#2"/>
    <trip id="veh69" type="veh_passenger" depart="149.07" departLane="best" from="-27241677#0" to="149122118#1"/>
    <trip id="veh70" type="veh_passenger" depart="151.23" departLane="best" from="257239011#1" to="333682049#15"/>
    <trip id="veh71" type="veh_passenger" depart="153.39" departLane="best" from="149122118#3" to="1015181078#1"/>
    <trip id="veh72" type="veh_passenger" depart="155.55" departLane="best" from="-265010601#1" to="353940877#1"/>
    <trip id="veh73" type="veh_passenger" depart="157.71" departLane="best" from="149122118#3" to="682445842#2"/>
    <trip id="veh74" type="veh_passenger" depart="159.87" departLane="best" from="59254388#2" to="-265010601#1"/>
    <trip id="veh75" type="veh_passenger" depart="162.03" departLane="best" from="149122118#8" to="354858487#4"/>
    <trip id="veh76" type="veh_passenger" depart="164.19" departLane="best" departSpeed="max" from="817912283#0" to="333682046#1"/>
    <trip id="veh77" type="veh_passenger" depart="166.35" departLane="best" from="27241668#3" to="4853035#3"/>
    <trip id="veh78" type="veh_passenger" depart="168.51" departLane="best" departSpeed="max" from="4854085" to="-397862673#3"/>
    <trip id="veh79" type="veh_passenger" depart="170.67" departLane="best" from="-27241668#5" to="266086980"/>
    <trip id="veh80" type="veh_passenger" depart="172.83" departLane="best" from="405795842#2" to="354858502#0"/>
    <trip id="veh81" type="veh_passenger" depart="174.99" departLane="best" from="987049868#0" to="-27241668#6"/>
    <trip id="veh82" type="veh_passenger" depart="177.15" departLane="best" from="265010617#1" to="265010581#1"/>
    <trip id="veh83" type="veh_passenger" depart="179.31" departLane="best" from="59254388#3" to="149835636#2"/>
    <trip id="veh84" type="veh_passenger" depart="181.47" departLane="best" from="-397862673#3" to="27241664"/>
    <trip id="veh85" type="veh_passenger" depart="183.63" departLane="best" from="266086964" to="157345942#1"/>
    <trip id="veh86" type="veh_passenger" depart="185.80" departLane="best" from="149835636#3" to="721120031#3"/>
    <trip id="veh87" type="veh_passenger" depart="187.96" departLane="best" from="266086974#1" to="62066585#1"/>
    <trip id="veh88" type="veh_passenger" depart="190.12" departLane="best" from="333682042#3" to="-149835645#3"/>
    <trip id="veh89" type="veh_passenger" depart="192.28" departLane="best" from="998621643#2" to="59254382#5"/>
    <trip id="veh90" type="veh_passenger" depart="194.44" departLane="best" from="820360609#2" to="721120031#3"/>
    <trip id="veh91" type="veh_passenger" depart="196.60" departLane="best" from="59254382#2" to="-333682049#5"/>
    <trip id="veh92" type="veh_passenger" depart="198.76" departLane="best" from="27241669#2" to="1015181077#5"/>
    <trip id="veh93" type="veh_passenger" depart="200.92" departLane="best" departSpeed="max" from="265010616#0" to="-149835645#8"/>
    <trip id="veh94" type="veh_passenger" depart="203.08" departLane="best" from="149835645#6" to="4853035#3"/>
    <trip id="veh96" type="veh_passenger" depart="207.40" departLane="best" departSpeed="max" from="820214408" to="987136270"/>
    <trip id="veh97" type="veh_passenger" depart="209.56" departLane="best" from="333682043#1" to="405795841"/>
    <trip id="veh98" type="veh_passenger" depart="211.72" departLane="best" from="-333682049#12" to="171300278#2"/>
    <trip id="veh99" type="veh_passenger" depart="213.88" departLane="best" from="820360609#2" to="333682049#10"/>
    <trip id="veh101" type="veh_passenger" depart="218.20" departLane="best" from="-149835645#7" to="333682049#12"/>
    <trip id="veh102" type="veh_passenger" depart="220.36" departLane="best" from="27241676#0" to="59254388#2"/>
    <trip id="veh103" type="veh_passenger" depart="222.52" departLane="best" from="-333682049#14" to="820360604#1"/>
    <trip id="veh104" type="veh_passenger" depart="224.68" departLane="best" from="-265010621#1" to="-397862673#0"/>
    <trip id="veh105" type="veh_passenger" depart="226.84" departLane="best" from="333682049#11" to="354858502#1"/>
    <trip id="veh106" type="veh_passenger" depart="229.00" departLane="best" from="149122118#6" to="-27241676#1"/>
    <trip id="veh107" type="veh_passenger" depart="231.16" departLane="best" from="651639707#1" to="149835636#0"/>
    <trip id="veh108" type="veh_passenger" depart="233.32" departLane="best" from="333682049#11" to="353940876#1"/>
    <trip id="veh109" type="veh_passenger" depart="235.48" departLane="best" from="266086958#1" to="333682049#12"/>
    <trip id="veh110" type="veh_passenger" depart="237.64" departLane="best" from="27241677#7" to="810346011#1"/>
    <trip id="veh111" type="veh_passenger" depart="239.81" departLane="best" from="1015181077#0" to="405795840"/>
    <trip id="veh112" type="veh_passenger" depart="241.97" departLane="best" from="149122118#8" to="266086958#2"/>
    <trip id="veh114" type="veh_passenger" depart="246.29" departLane="best" departSpeed="max" from="23350417#0" to="45177385#1"/>
    <trip id="veh115" type="veh_passenger" depart="248.45" departLane="best" from="-265010604" to="27241668#3"/>
    <trip id="veh116" type="veh_passenger" depart="250.61" departLane="best" from="998621643#2" to="987136270"/>
    <trip id="veh117" type="veh_passenger" depart="252.77" departLane="best" from="-265010604" to="1015181077#5"/>
    <trip id="veh118" type="veh_passenger" depart="254.93" departLane="best" from="149835645#6" to="810346011#1"/>
    <trip id="veh119" type="veh_passenger" depart="257.09" departLane="best" from="62066589#1" to="651637969"/>
    <trip id="veh120" type="veh_passenger" depart="259.25" departLane="best" from="265010588#4" to="-333682049#14"/>
    <trip id="veh121" type="veh_passenger" depart="261.41" departLane="best" from="582338491#2" to="400919425#3"/>
    <trip id="veh122" type="veh_passenger" depart="263.57" departLane="best" from="333682049#8" to="987049868#1"/>
    <trip id="veh123" type="veh_passenger" depart="265.73" departLane="best" from="353940886" to="-1015181077#5"/>
    <trip id="veh125" type="veh_passenger" depart="270.05" departLane="best" from="354858483#5" to="810346011#3"/>
    <trip id="veh126" type="veh_passenger" depart="272.21" departLane="best" from="-27241677#5" to="-27241671#1"/>
    <trip id="veh127" type="veh_passenger" depart="274.37" departLane="best" from="-27241669#2" to="333682043#5"/>
    <trip id="veh128" type="veh_passenger" depart="276.53" departLane="best" departSpeed="max" from="157345939" to="333682052#2"/>
    <trip id="veh129" type="veh_passenger" depart="278.69" departLane="best" from="400919425#4" to="1015181076#1"/>
    <trip id="veh130" type="veh_passenger" depart="280.85" departLane="best" from="353940876#1" to="149835645#4"/>
    <trip id="veh131" type="veh_passenger" depart="283.01" departLane="best" from="27241669#3" to="682445842#2"/>
    <trip id="veh132" type="veh_passenger" depart="285.17" departLane="best" from="59254382#1" to="-27241668#2"/>
    <trip id="veh133" type="veh_passenger" depart="287.33" departLane="best" from="266086965#1" to="157345942#1"/>
    <trip id="veh134" type="veh_passenger" depart="289.49" departLane="best" from="-1015181077#1" to="4848752#1"/>
    <trip id="veh135" type="veh_passenger" depart="291.66" departLane="best" from="353940876#2" to="149835645#3"/>
    <trip id="veh137" type="veh_passenger" depart="295.98" departLane="best" from="266086967#0" to="-1015181077#6"/>
    <trip id="veh138" type="veh_passenger" depart="298.14" departLane="best" from="-265010620#1" to="651639707#1"/>
    <trip id="veh139" type="veh_passenger" depart="300.30" departLane="best" from="682445842#2" to="333682043#3"/>
    <trip id="veh140" type="veh_passenger" depart="302.46" departLane="best" from="59254381#0" to="333682049#12"/>
    <trip id="veh141" type="veh_passenger" depart="304.62" departLane="best" departSpeed="max" from="23350417#0" to="682445838"/>
    <trip id="veh142" type="veh_passenger" depart="306.78" departLane="best" from="4853035#3" to="62066585#1"/>
    <trip id="veh143" type="veh_passenger" depart="308.94" departLane="best" from="651639707#3" to="1015181077#3"/>
    <trip id="veh144" type="veh_passenger" depart="311.10" departLane="best" from="149835636#3" to="-27241668#8"/>
    <trip id="veh146" type="veh_passenger" depart="315.42" departLane="best" from="265010620#1" to="353940876#1"/>
    <trip id="veh147" type="veh_passenger" depart="317.58" departLane="best" from="-333682049#12" to="743545404#3"/>
    <trip id="veh148" type="veh_passenger" depart="319.74" departLane="best" from="59254388#4" to="951326912#1"/>
    <trip id="veh149" type="veh_passenger" depart="321.90" departLane="best" departSpeed="max" from="4854085" to="651639707#1"/>
    <trip id="veh152" type="veh_passenger" depart="328.38" departLane="best" departSpeed="max" from="4854085" to="149835645#6"/>
    <trip id="veh153" type="veh_passenger" depart="330.54" departLane="best" departSpeed="max" from="4853035#0" to="-27241669#2"/>
    <trip id="veh154" type="veh_passenger" depart="332.70" departLane="best" from="1015181078#3" to="59254382#0"/>
    <trip id="veh155" type="veh_passenger" depart="334.86" departLane="best" from="266086999" to="23350417#3"/>
    <trip id="veh156" type="veh_passenger" depart="337.02" departLane="best" departSpeed="max" from="4853035#0" to="149122118#10"/>
    <trip id="veh157" type="veh_passenger" depart="339.18" departLane="best" from="-149122118#6" to="-397862673#6"/>
    <trip id="veh158" type="veh_passenger" depart="341.34" departLane="best" from="24059844" to="62066588"/>
    <trip id="veh159" type="veh_passenger" depart="343.50" departLane="best" from="820360609#1" to="157345942#1"/>
    <trip id="veh160" type="veh_passenger" depart="345.67" departLane="best" from="353940877#0" to="266086965#1"/>
    <trip id="veh161" type="veh_passenger" depart="347.83" departLane="best" from="987049867" to="333682042#3"/>
    <trip id="veh162" type="veh_passenger" depart="349.99" departLane="best" departSpeed="max" from="817912283#0" to="-27241671#1"/>
    <trip id="veh163" type="veh_passenger" depart="352.15" departLane="best" from="849983642#0" to="-333682053#4"/>
    <trip id="veh165" type="veh_passenger" depart="356.47" departLane="best" from="-27241669#3" to="266086980"/>
    <trip id="veh166" type="veh_passenger" depart="358.63" departLane="best" from="405795842#2" to="24835448"/>
    <trip id="veh167" type="veh_passenger" depart="360.79" departLane="best" from="265010598#5" to="333682049#0"/>
    <trip id="veh168" type="veh_passenger" depart="362.95" departLane="best" from="149835645#10" to="405795839#1"/>
    <trip id="veh169" type="veh_passenger" depart="365.11" departLane="best" from="-1015181077#0" to="721120031#3"/>
    <trip id="veh170" type="veh_passenger" depart="367.27" departLane="best" from="333682042#0" to="405795842#0"/>
    <trip id="veh172" type="veh_passenger" depart="371.59" departLane="best" from="265010588#1" to="-265010601#0"/>
    <trip id="veh173" type="veh_passenger" depart="373.75" departLane="best" from="354858483#5" to="265010574"/>
    <trip id="veh174" type="veh_passenger" depart="375.91" departLane="best" departSpeed="max" from="23350417#0" to="59254385"/>
    <trip id="veh176" type="veh_passenger" depart="380.23" departLane="best" departSpeed="max" from="23350417#0" to="266086971#1"/>
    <trip id="veh177" type="veh_passenger" depart="382.39" departLane="best" from="265010617#1" to="171300278#2"/>
    <trip id="veh178" type="veh_passenger" depart="384.55" departLane="best" from="-27241677#11" to="266086974#2"/>
    <trip id="veh179" type="veh_passenger" depart="386.71" departLane="best" departSpeed="max" from="817912283#0" to="354858505#1"/>
    <trip id="veh180" type="veh_passenger" depart="388.87" departLane="best" from="682445842#2" to="353940876#0"/>
    <trip id="veh181" type="veh_passenger" depart="391.03" departLane="best" departSpeed="max" from="198900391#0" to="333682043#4"/>
    <trip id="veh182" type="veh_passenger" depart="393.19" departLane="best" from="-1015181077#0" to="171300268#2"/>
    <trip id="veh183" type="veh_passenger" depart="395.35" departLane="best" from="266086967#1" to="333682049#10"/>
    <trip id="veh184" type="veh_passenger" depart="397.52" departLane="best" from="353940886" to="27241668#7"/>
    <trip id="veh185" type="veh_passenger" depart="399.68" departLane="best" from="266086974#1" to="1015181077#5"/>
    <trip id="veh186" type="veh_passenger" depart="401.84" departLane="best" from="27241668#4" to="682445842#0"/>
    <trip id="veh187" type="veh_passenger" depart="404.00" departLane="best" from="4853035#3" to="-333682049#8"/>
    <trip id="veh188" type="veh_passenger" depart="406.16" departLane="best" from="-27241668#0" to="27241686#1"/>
    <trip id="veh189" type="veh_passenger" depart="408.32" departLane="best" from="353940876#1" to="265010581#0"/>
    <trip id="veh190" type="veh_passenger" depart="410.48" departLane="best" departSpeed="max" from="550281563" to="45177385#1"/>
    <trip id="veh191" type="veh_passenger" depart="412.64" departLane="best" from="354858483#7" to="149122118#1"/>
    <trip id="veh192" type="veh_passenger" depart="414.80" departLane="best" from="1015165917" to="-149122118#6"/>
    <trip id="veh193" type="veh_passenger" depart="416.96" departLane="best" from="149835636#0" to="27241669#3"/>
    <trip id="veh194" type="veh_passenger" depart="419.12" departLane="best" from="59254382#2" to="-265010604"/>
    <trip id="veh195" type="veh_passenger" depart="421.28" departLane="best" from="265010621#3" to="353940877#1"/>
    <trip id="veh196" type="veh_passenger" depart="423.44" departLane="best" from="-397862673#7" to="400919425#1"/>
    <trip id="veh197" type="veh_passenger" depart="425.60" departLane="best" from="27241671#1" to="149122128#1"/>
    <trip id="veh198" type="veh_passenger" depart="427.76" departLane="best" from="354858483#1" to="-1015181077#4"/>
    <trip id="veh200" type="veh_passenger" depart="432.08" departLane="best" from="-27241669#2" to="266086980"/>
    <trip id="veh201" type="veh_passenger" depart="434.24" departLane="best" from="-333682053#2" to="820360604#1"/>
    <trip id="veh202" type="veh_passenger" depart="436.40" departLane="best" from="27241677#4" to="-149835645#3"/>
    <trip id="veh203" type="veh_passenger" depart="438.56" departLane="best" from="149835636#3" to="59254385"/>
    <trip id="veh205" type="veh_passenger" depart="442.88" departLane="best" from="354858483#6" to="987049868#1"/>
    <trip id="veh206" type="veh_passenger" depart="445.04" departLane="best" from="333682049#11" to="820360602#0"/>
    <trip id="veh207" type="veh_passenger" depart="447.20" departLane="best" from="651639707#1" to="333682053#4"/>
    <trip id="veh208" type="veh_passenger" depart="449.37" departLane="best" from="400919425#4" to="27241677#5"/>
    <trip id="veh209" type="veh_passenger" depart="451.53" departLane="best" from="582338491#0" to="333682043#4"/>
    <trip id="veh211" type="veh_passenger" depart="455.85" departLane="best" from="27241668#4" to="149835645#2"/>
    <trip id="veh212" type="veh_passenger" depart="458.01" departLane="best" from="149835636#2" to="353940882#2"/>
    <trip id="veh213" type="veh_passenger" depart="460.17" departLane="best" from="461203109#1" to="27242140#1"/>
    <trip id="veh214" type="veh_passenger" depart="462.33" departLane="best" from="333682053#5" to="157345942#1"/>
    <trip id="veh215" type="veh_passenger" depart="464.49" departLane="best" from="-265010621#0" to="171300268#1"/>
    <trip id="veh216" type="veh_passenger" depart="466.65" departLane="best" from="157345933#0" to="257239011#0"/>
    <trip id="veh217" type="veh_passenger" depart="468.81" departLane="best" from="333682042#0" to="-27241677#7"/>
    <trip id="veh218" type="veh_passenger" depart="470.97" departLane="best" from="149122118#4" to="400919425#1"/>
    <trip id="veh219" type="veh_passenger" depart="473.13" departLane="best" from="400919425#1" to="-171300268#2"/>
    <trip id="veh220" type="veh_passenger" depart="475.29" departLane="best" from="265010620#2" to="333682043#3"/>
    <trip id="veh221" type="veh_passenger" depart="477.45" departLane="best" from="265010621#3" to="1015181077#1"/>
    <trip id="veh222" type="veh_passenger" depart="479.61" departLane="best" from="266086958#2" to="682445842#2"/>
    <trip id="veh223" type="veh_passenger" depart="481.77" departLane="best" from="59254385" to="461222309#2"/>
    <trip id="veh224" type="veh_passenger" depart="483.93" departLane="best" from="265010598#4" to="-1015181077#4"/>
    <trip id="veh225" type="veh_passenger" depart="486.09" departLane="best" from="265010581#0" to="45177385#1"/>
    <trip id="veh226" type="veh_passenger" depart="488.25" departLane="best" from="59254382#3" to="820360602#2"/>
    <trip id="veh228" type="veh_passenger" depart="492.57" departLane="best" from="266086971#2" to="-149122118#9"/>
    <trip id="veh229" type="veh_passenger" depart="494.73" departLane="best" from="257239011#0" to="354858505#2"/>
    <trip id="veh230" type="veh_passenger" depart="496.89" departLane="best" from="265010617#1" to="-333682049#5"/>
    <trip id="veh231" type="veh_passenger" depart="499.05" departLane="best" from="27241668#1" to="-27241677#11"/>
    <trip id="veh232" type="veh_passenger" depart="501.21" departLane="best" from="333682053#1" to="-149122118#7"/>
    <trip id="veh233" type="veh_passenger" depart="503.38" departLane="best" departSpeed="max" from="265010616#0" to="333682045"/>
    <trip id="veh234" type="veh_passenger" depart="505.54" departLane="best" from="-149122118#8" to="354858483#1"/>
    <trip id="veh235" type="veh_passenger" depart="507.70" departLane="best" from="-27241677#6" to="27241668#5"/>
    <trip id="veh236" type="veh_passenger" depart="509.86" departLane="best" from="-149835645#3" to="265010617#1"/>
    <trip id="veh237" type="veh_passenger" depart="512.02" departLane="best" from="1015181077#5" to="257239019#0"/>
    <trip id="veh238" type="veh_passenger" depart="514.18" departLane="best" from="45177486" to="265010617#1"/>
    <trip id="veh240" type="veh_passenger" depart="518.50" departLane="best" from="149835645#1" to="-265010621#2"/>
    <trip id="veh241" type="veh_passenger" depart="520.66" departLane="best" from="-149122118#3" to="333682043#1"/>
    <trip id="veh242" type="veh_passenger" depart="522.82" departLane="best" from="998621643#2" to="265010588#1"/>
    <trip id="veh244" type="veh_passenger" depart="527.14" departLane="best" departSpeed="max" from="820214408" to="1015165917"/>
    <trip id="veh245" type="veh_passenger" depart="529.30" departLane="best" from="-149122118#4" to="-333682049#11"/>
    <trip id="veh246" type="veh_passenger" depart="531.46" departLane="best" from="-27241677#11" to="354858493"/>
    <trip id="veh247" type="veh_passenger" depart="533.62" departLane="best" from="397862664#1" to="461222309#2"/>
    <trip id="veh249" type="veh_passenger" depart="537.94" departLane="best" departSpeed="max" from="550281563" to="820360604#1"/>
    <trip id="veh250" type="veh_passenger" depart="540.10" departLane="best" from="-27241669#2" to="-149122118#7"/>
    <trip id="veh251" type="veh_passenger" depart="542.26" departLane="best" departSpeed="max" from="23350417#0" to="354858505#1"/>
    <trip id="veh252" type="veh_passenger" depart="544.42" departLane="best" departSpeed="max" from="820214408" to="266086958#2"/>
    <trip id="veh253" type="veh_passenger" depart="546.58" departLane="best" from="400919425#3" to="-265010620#1"/>
    <trip id="veh254" type="veh_passenger" depart="548.74" departLane="best" from="354858505#1" to="353940877#0"/>
    <trip id="veh255" type="veh_passenger" depart="550.90" departLane="best" from="-27241668#8" to="4848752#2"/>
    <trip id="veh256" type="veh_passenger" depart="553.06" departLane="best" from="59254382#2" to="333682049#9"/>
    <trip id="veh257" type="veh_passenger" depart="555.23" departLane="best" from="-27241677#0" to="987049868#0"/>
    <trip id="veh259" type="veh_passenger" depart="559.55" departLane="best" from="266086967#0" to="265010601#0"/>
    <trip id="veh260" type="veh_passenger" depart="561.71" departLane="best" from="27241677#0" to="265010581#1"/>
    <trip id="veh261" type="veh_passenger" depart="563.87" departLane="best" from="-27241669#1" to="820360604#1"/>
    <trip id="veh262" type="veh_passenger" depart="566.03" departLane="best" from="353940876#2" to="59254382#3"/>
    <trip id="veh263" type="veh_passenger" depart="568.19" departLane="best" from="400919425#1" to="266086980"/>
    <trip id="veh264" type="veh_passenger" depart="570.35" departLane="best" from="405795843#1" to="820360604#1"/>
    <trip id="veh265" type="veh_passenger" depart="572.51" departLane="best" from="149835645#8" to="59254381#0"/>
    <trip id="veh266" type="veh_passenger" depart="574.67" departLane="best" from="266086971#2" to="405795843#2"/>
    <trip id="veh267" type="veh_passenger" depart="576.83" departLane="best" from="149835645#7" to="59254388#2"/>
    <trip id="veh268" type="veh_passenger" depart="578.99" departLane="best" from="582338491#1" to="-27241668#0"/>
    <trip id="veh270" type="veh_passenger" depart="583.31" departLane="best" from="27241668#0" to="333682053#2"/>