<?xml version="1.0" encoding="UTF-8"?>
<!-- generated on 2022-01-28 10:42:14.201839 by $Id$ v1_9_2+0000-4206cfae24
  options: 
-->
<routes xmlns:xsi="http://www.w3.org/2001/XMLSchema-instance" xsi:noNamespaceSchemaLocation="http://sumo.dlr.de/xsd/routes_file.xsd">
    <vType id="ped_pedestrian" vClass="pedestrian"/>
    <person id="ped0" depart="0.00" type="ped_pedestrian">
        <walk from="389246084#0" to="-149835642"/>
    </person>
    <person id="ped1" depart="1.91" type="ped_pedestrian">
        <walk from="234433521" to="192618338#8"/>
    </person>
    <person id="ped2" depart="3.82" type="ped_pedestrian">
        <walk from="577631911#2" to="395028330"/>
    </person>
    <person id="ped3" depart="5.73" type="ped_pedestrian">
        <walk from="718029283#0" to="-397862673#3"/>
    </person>
    <person id="ped4" depart="7.63" type="ped_pedestrian">
        <walk from="27241669#4" to="-149835645#7"/>
    </person>
    <person id="ped5" depart="9.54" type="ped_pedestrian">
        <walk from="184604681" to="328162851#1"/>
    </person>
    <person id="ped6" depart="11.45" type="ped_pedestrian">
        <walk from="-149835645#10" to="170404063#1"/>
    </person>
    <person id="ped7" depart="13.36" type="ped_pedestrian">
        <walk from="389670078#0" to="333682049#10"/>
    </person>
    <person id="ped8" depart="15.27" type="ped_pedestrian">
        <walk from="192618338#3" to="363200558#0"/>
    </person>
    <person id="ped9" depart="17.18" type="ped_pedestrian">
        <walk from="670520362#0" to="-149122118#6"/>
    </person>
    <person id="ped10" depart="19.09" type="ped_pedestrian">
        <walk from="670519998#2" to="397862675#2"/>
    </person>
    <person id="ped11" depart="20.99" type="ped_pedestrian">
        <walk from="246571145#11" to="149123003#0"/>
    </person>
    <person id="ped12" depart="22.90" type="ped_pedestrian">
        <walk from="825626378#1" to="246569229"/>
    </person>
    <person id="ped13" depart="24.81" type="ped_pedestrian">
        <walk from="-397862682" to="-397864774"/>
    </person>
    <person id="ped14" depart="26.72" type="ped_pedestrian">
        <walk from="689980319#1" to="384474093#0"/>
    </person>
    <person id="ped15" depart="28.63" type="ped_pedestrian">
        <walk from="670519999#1" to="560742107#12"/>
    </person>
    <person id="ped16" depart="30.54" type="ped_pedestrian">
        <walk from="332871313#1" to="837916140#1"/>
    </person>
    <person id="ped17" depart="32.44" type="ped_pedestrian">
        <walk from="247798935#0" to="333682052#2"/>
    </person>
    <person id="ped18" depart="34.35" type="ped_pedestrian">
        <walk from="682458212" to="388986338#10"/>
    </person>
    <person id="ped19" depart="36.26" type="ped_pedestrian">
        <walk from="690818522#1" to="363197685#3"/>
    </person>
    <person id="ped20" depart="38.17" type="ped_pedestrian">
        <walk from="397864773#3" to="-265010601#1"/>
    </person>
    <person id="ped21" depart="40.08" type="ped_pedestrian">
        <walk from="198116994#1" to="246410263#0"/>
    </person>
    <person id="ped22" depart="41.99" type="ped_pedestrian">
        <walk from="-388987244#1" to="207807396"/>
    </person>
    <person id="ped23" depart="43.90" type="ped_pedestrian">
        <walk from="-397864793#0" to="234434027#1"/>
    </person>
    <person id="ped24" depart="45.80" type="ped_pedestrian">
        <walk from="389244907#2" to="247773416#1"/>
    </person>
    <person id="ped25" depart="47.71" type="ped_pedestrian">
        <walk from="247797785" to="170419486#2"/>
    </person>
    <person id="ped26" depart="49.62" type="ped_pedestrian">
        <walk from="232848795#7" to="784311048#0"/>
    </person>
    <person id="ped27" depart="51.53" type="ped_pedestrian">
        <walk from="389670077#0" to="384474099#1"/>
    </person>
    <person id="ped28" depart="53.44" type="ped_pedestrian">
        <walk from="149835645#5" to="560742107#11"/>
    </person>
    <person id="ped29" depart="55.35" type="ped_pedestrian">
        <walk from="149835631#1" to="247798936#0"/>
    </person>
    <person id="ped30" depart="57.26" type="ped_pedestrian">
        <walk from="951326912#1" to="389246084#1"/>
    </person>
    <person id="ped31" depart="59.16" type="ped_pedestrian">
        <walk from="340597120#0" to="39726788#2"/>
    </person>
    <person id="ped32" depart="61.07" type="ped_pedestrian">
        <walk from="682459936#3" to="665970462#0"/>
    </person>
    <person id="ped33" depart="62.98" type="ped_pedestrian">
        <walk from="198116997#2" to="-157345930#2"/>
    </person>
    <person id="ped34" depart="64.89" type="ped_pedestrian">
        <walk from="246568705#1" to="232848795#8"/>
    </person>
    <person id="ped35" depart="66.80" type="ped_pedestrian">
        <walk from="170420289#2" to="817912283#0"/>
    </person>
    <person id="ped36" depart="68.71" type="ped_pedestrian">
        <walk from="704585576" to="246568705#0"/>
    </person>
    <person id="ped37" depart="70.61" type="ped_pedestrian">
        <walk from="389670079#9" to="265010588#1"/>
    </person>
    <person id="ped38" depart="72.52" type="ped_pedestrian">
        <walk from="718082600#1" to="287907329#3"/>
    </person>
    <person id="ped39" depart="74.43" type="ped_pedestrian">
        <walk from="232848795#3" to="207807431#3"/>
    </person>
    <person id="ped40" depart="76.34" type="ped_pedestrian">
        <walk from="353940882#0" to="232848794#2"/>
    </person>
    <person id="ped41" depart="78.25" type="ped_pedestrian">
        <walk from="363200549#2" to="718029287#1"/>
    </person>
    <person id="ped42" depart="80.16" type="ped_pedestrian">
        <walk from="265010601#0" to="192618338#0"/>
    </person>
    <person id="ped43" depart="82.07" type="ped_pedestrian">
        <walk from="99180655#6" to="328162854"/>
    </person>
    <person id="ped44" depart="83.97" type="ped_pedestrian">
        <walk from="-397862678" to="-265010620#2"/>
    </person>
    <person id="ped45" depart="85.88" type="ped_pedestrian">
        <walk from="-577631918#5" to="388987242"/>
    </person>
    <person id="ped46" depart="87.79" type="ped_pedestrian">
        <walk from="670519983#2" to="27241671#0"/>
    </person>
    <person id="ped47" depart="89.70" type="ped_pedestrian">
        <walk from="-27241677#6" to="247798937#0"/>
    </person>
    <person id="ped48" depart="91.61" type="ped_pedestrian">
        <walk from="99180655#3" to="332871311#20"/>
    </person>
    <person id="ped49" depart="93.52" type="ped_pedestrian">
        <walk from="837916137#0" to="690818521"/>
    </person>
    <person id="ped50" depart="95.43" type="ped_pedestrian">
        <walk from="-149122131#1" to="4848752#2"/>
    </person>
    <person id="ped51" depart="97.33" type="ped_pedestrian">
        <walk from="395028338#0" to="332871313#2"/>
    </person>
    <person id="ped52" depart="99.24" type="ped_pedestrian">
        <walk from="232848795#7" to="389246084#3"/>
    </person>
    <person id="ped53" depart="101.15" type="ped_pedestrian">
        <walk from="-577631961" to="285211005#0"/>
    </person>
    <person id="ped54" depart="103.06" type="ped_pedestrian">
        <walk from="285211027#1" to="825626376#1"/>
    </person>
    <person id="ped55" depart="104.97" type="ped_pedestrian">
        <walk from="704585573#1" to="232848795#0"/>
    </person>
    <person id="ped56" depart="106.88" type="ped_pedestrian">
        <walk from="328162848#0" to="157345937#2"/>
    </person>
    <person id="ped57" depart="108.79" type="ped_pedestrian">
        <walk from="718082597" to="690818522#5"/>
    </person>
    <person id="ped58" depart="110.69" type="ped_pedestrian">
        <walk from="246568695#1" to="389245309#2"/>
    </person>
    <person id="ped59" depart="112.60" type="ped_pedestrian">
        <walk from="384474099#0" to="149122131#1"/>
    </person>
    <person id="ped60" depart="114.51" type="ped_pedestrian">
        <walk from="619426687" to="333682043#1"/>
    </person>
    <person id="ped61" depart="116.42" type="ped_pedestrian">
        <walk from="665970464#3" to="332871311#22"/>
    </person>
    <person id="ped62" depart="118.33" type="ped_pedestrian">
        <walk from="-1015181077#1" to="246568706#2"/>
    </person>
    <person id="ped63" depart="120.24" type="ped_pedestrian">
        <walk from="-149835628#0" to="746502593#11"/>
    </person>
    <person id="ped64" depart="122.14" type="ped_pedestrian">
        <walk from="704585580#1" to="682458237#1"/>
    </person>
    <person id="ped65" depart="124.05" type="ped_pedestrian">
        <walk from="246568698#1" to="-27241671#2"/>
    </person>
    <person id="ped66" depart="125.96" type="ped_pedestrian">
        <walk from="704585578" to="820360609#1"/>
    </person>
    <person id="ped67" depart="127.87" type="ped_pedestrian">
        <walk from="-397862673#0" to="312713398#9"/>
    </person>
    <person id="ped68" depart="129.78" type="ped_pedestrian">
        <walk from="-333682049#13" to="609786146#0"/>
    </person>
    <person id="ped69" depart="131.69" type="ped_pedestrian">
        <walk from="626294360#2" to="-718029293#2"/>
    </person>
    <person id="ped70" depart="133.60" type="ped_pedestrian">
        <walk from="312713398#14" to="333682049#8"/>
    </person>
    <person id="ped71" depart="135.50" type="ped_pedestrian">
        <walk from="232848795#3" to="690818522#9"/>
    </person>
    <person id="ped72" depart="137.41" type="ped_pedestrian">
        <walk from="27241671#2" to="170420356"/>
    </person>
    <person id="ped73" depart="139.32" type="ped_pedestrian">
        <walk from="333682043#1" to="560742107#13"/>
    </person>
    <person id="ped74" depart="141.23" type="ped_pedestrian">
        <walk from="170404074#0" to="246568703#2"/>
    </person>
    <person id="ped75" depart="143.14" type="ped_pedestrian">
        <walk from="99180655#1" to="389670078#0"/>
    </person>
    <person id="ped76" depart="145.05" type="ped_pedestrian">
        <walk from="285211010" to="332617478#3"/>
    </person>
    <person id="ped77" depart="146.96" type="ped_pedestrian">
        <walk from="-626297740#1" to="198116982#2"/>
    </person>
    <person id="ped78" depart="148.86" type="ped_pedestrian">
        <walk from="246569232#0" to="363200556#3"/>
    </person>
    <person id="ped79" depart="150.77" type="ped_pedestrian">
        <walk from="198117538#0" to="192618338#2"/>
    </person>
    <person id="ped80" depart="152.68" type="ped_pedestrian">
        <walk from="-333682049#16" to="388987344#0"/>
    </person>
    <person id="ped81" depart="154.59" type="ped_pedestrian">
        <walk from="198116997#2" to="718029298#3"/>
    </person>
    <person id="ped82" depart="156.50" type="ped_pedestrian">
        <walk from="689980763#0" to="-333682049#16"/>
    </person>
    <person id="ped83" depart="158.41" type="ped_pedestrian">
        <walk from="207807410" to="395028318#2"/>
    </person>
    <person id="ped84" depart="160.31" type="ped_pedestrian">
        <walk from="171300268#2" to="-718082603#1"/>
    </person>
    <person id="ped85" depart="162.22" type="ped_pedestrian">
        <walk from="749122239#0" to="363197672"/>
    </person>
    <person id="ped86" depart="164.13" type="ped_pedestrian">
        <walk from="312713398#1" to="665970473#7"/>
    </person>
    <person id="ped87" depart="166.04" type="ped_pedestrian">
        <walk from="670520000#0" to="164410014#2"/>
    </person>
    <person id="ped88" depart="167.95" type="ped_pedestrian">
        <walk from="-397864774" to="27241677#8"/>
    </person>
    <person id="ped89" depart="169.86" type="ped_pedestrian">
        <walk from="27241672#0" to="312405190#12"/>
    </person>
    <person id="ped90" depart="171.77" type="ped_pedestrian">
        <walk from="560742107#11" to="395028326#1"/>
    </person>
    <person id="ped91" depart="173.67" type="ped_pedestrian">
        <walk from="849976827" to="-397864777#0"/>
    </person>
    <person id="ped92" depart="175.58" type="ped_pedestrian">
        <walk from="265010614#1" to="246571145#1"/>
    </person>
    <person id="ped93" depart="177.49" type="ped_pedestrian">
        <walk from="690818522#1" to="207807433#0"/>
    </person>
    <person id="ped94" depart="179.40" type="ped_pedestrian">
        <walk from="164410014#12" to="285211024#1"/>
    </person>
    <person id="ped95" depart="181.31" type="ped_pedestrian">
        <walk from="27241669#4" to="234434029#1"/>
    </person>
    <person id="ped96" depart="183.22" type="ped_pedestrian">
        <walk from="232848789#0" to="743545404#1"/>
    </person>
    <person id="ped97" depart="185.13" type="ped_pedestrian">
        <walk from="285211018#0" to="690818522#0"/>
    </person>
    <person id="ped98" depart="187.03" type="ped_pedestrian">
        <walk from="333682049#9" to="-27241668#10"/>
    </person>
    <person id="ped99" depart="188.94" type="ped_pedestrian">
        <walk from="998621643#1" to="682459925#11"/>
    </person>
    <person id="ped100" depart="190.85" type="ped_pedestrian">
        <walk from="837295385" to="746485536#1"/>
    </person>
    <person id="ped101" depart="192.76" type="ped_pedestrian">
        <walk from="689980324#2" to="149835636#2"/>
    </person>
    <person id="ped102" depart="194.67" type="ped_pedestrian">
        <walk from="312713398#8" to="171300268#1"/>
    </person>
    <person id="ped103" depart="196.58" type="ped_pedestrian">
        <walk from="265010606#1" to="-27241676#0"/>
    </person>
    <person id="ped104" depart="198.49" type="ped_pedestrian">
        <walk from="247798935#1" to="849983642#1"/>
    </person>
    <person id="ped105" depart="200.39" type="ped_pedestrian">
        <walk from="232848795#3" to="665970473#6"/>
    </person>
    <person id="ped106" depart="202.30" type="ped_pedestrian">
        <walk from="285211027#3" to="27241671#1"/>
    </person>
    <person id="ped107" depart="204.21" type="ped_pedestrian">
        <walk from="825626378#1" to="99180655#1"/>
    </person>
    <person id="ped108" depart="206.12" type="ped_pedestrian">
        <walk from="340597119#1" to="461203108#1"/>
    </person>
    <person id="ped109" depart="208.03" type="ped_pedestrian">
        <walk from="149122131#5" to="246568692"/>
    </person>
    <person id="ped110" depart="209.94" type="ped_pedestrian">
        <walk from="837295383#2" to="363197809"/>
    </person>
    <person id="ped111" depart="211.84" type="ped_pedestrian">
        <walk from="333682044#1" to="577632004"/>
    </person>
    <person id="ped112" depart="213.75" type="ped_pedestrian">
        <walk from="-27241671#0" to="363200549#1"/>
    </person>
    <person id="ped113" depart="215.66" type="ped_pedestrian">
        <walk from="328162849#1" to="689980333#1"/>
    </person>
    <person id="ped114" depart="217.57" type="ped_pedestrian">
        <walk from="149123006#1" to="837295372#0"/>
    </person>
    <person id="ped115" depart="219.48" type="ped_pedestrian">
        <walk from="-388987278#1" to="157345945#3"/>
    </person>
    <person id="ped116" depart="221.39" type="ped_pedestrian">
        <walk from="384474078" to="395028327#0"/>
    </person>
    <person id="ped117" depart="223.30" type="ped_pedestrian">
        <walk from="207807400" to="-626297739#1"/>
    </person>
    <person id="ped118" depart="225.20" type="ped_pedestrian">
        <walk from="718029282#0" to="207807431#2"/>
    </person>
    <person id="ped119" depart="227.11" type="ped_pedestrian">
        <walk from="381863138#1" to="388986338#2"/>
    </person>
    <person id="ped120" depart="229.02" type="ped_pedestrian">
        <walk from="27241668#8" to="363200549#0"/>
    </person>
    <person id="ped121" depart="230.93" type="ped_pedestrian">
        <walk from="332871311#0" to="746502593#9"/>
    </person>
    <person id="ped122" depart="232.84" type="ped_pedestrian">
        <walk from="170404326#1" to="438913989#2"/>
    </person>
    <person id="ped123" depart="234.75" type="ped_pedestrian">
        <walk from="207807413" to="265010588#1"/>
    </person>
    <person id="ped124" depart="236.66" type="ped_pedestrian">
        <walk from="395028325#1" to="246568696#11"/>
    </person>
    <person id="ped125" depart="238.56" type="ped_pedestrian">
        <walk from="246568705#3" to="59254382#3"/>
    </person>
    <person id="ped126" depart="240.47" type="ped_pedestrian">
        <walk from="-333682049#8" to="287907329#2"/>
    </person>
    <person id="ped127" depart="242.38" type="ped_pedestrian">
        <walk from="99180655#7" to="99180655#3"/>
    </person>
    <person id="ped128" depart="244.29" type="ped_pedestrian">
        <walk from="-333682049#9" to="171300268#0"/>
    </person>
    <person id="ped129" depart="246.20" type="ped_pedestrian">
        <walk from="232848795#3" to="746502593#6"/>
    </person>
    <person id="ped130" depart="248.11" type="ped_pedestrian">
        <walk from="706008134#2" to="704585580#2"/>
    </person>
    <person id="ped131" depart="250.02" type="ped_pedestrian">
        <walk from="247797784" to="149123006#1"/>
    </person>
    <person id="ped132" depart="251.92" type="ped_pedestrian">
        <walk from="682459910" to="397864773#1"/>
    </person>
    <person id="ped133" depart="253.83" type="ped_pedestrian">
        <walk from="388234910#1" to="853378615#2"/>
    </person>
    <person id="ped134" depart="255.74" type="ped_pedestrian">
        <walk from="389670079#6" to="-149122118#8"/>
    </person>
    <person id="ped135" depart="257.65" type="ped_pedestrian">
        <walk from="682435535#1" to="246568696#10"/>
    </person>
    <person id="ped136" depart="259.56" type="ped_pedestrian">
        <walk from="395023347#4" to="814258342"/>
    </person>
    <person id="ped137" depart="261.47" type="ped_pedestrian">
        <walk from="-743542557#1" to="-577631998#1"/>
    </person>
    <person id="ped138" depart="263.37" type="ped_pedestrian">
        <walk from="-577631913" to="333682053#1"/>
    </person>
    <person id="ped139" depart="265.28" type="ped_pedestrian">
        <walk from="23350417#4" to="384474095#1"/>
    </person>
    <person id="ped140" depart="267.19" type="ped_pedestrian">
        <walk from="45177486" to="170404075#1"/>
    </person>
    <person id="ped141" depart="269.10" type="ped_pedestrian">
        <walk from="389242129" to="232848795#1"/>
    </person>
    <person id="ped142" depart="271.01" type="ped_pedestrian">
        <walk from="312877988#1" to="718029298#3"/>
    </person>
    <person id="ped143" depart="272.92" type="ped_pedestrian">
        <walk from="689980316#2" to="-397862681"/>
    </person>
    <person id="ped144" depart="274.83" type="ped_pedestrian">
        <walk from="27241672#0" to="234433523#1"/>
    </person>
    <person id="ped145" depart="276.73" type="ped_pedestrian">
        <walk from="-149122118#1" to="626297739#1"/>
    </person>
    <person id="ped146" depart="278.64" type="ped_pedestrian">
        <walk from="389245029#0" to="232848794#1"/>
    </person>
    <person id="ped147" depart="280.55" type="ped_pedestrian">
        <walk from="577631961" to="333682052#1"/>
    </person>
    <person id="ped148" depart="282.46" type="ped_pedestrian">
        <walk from="27241677#11" to="-149122121#0"/>
    </person>
    <person id="ped149" depart="284.37" type="ped_pedestrian">
        <walk from="-333682053#4" to="706008137"/>
    </person>
    <person id="ped150" depart="286.28" type="ped_pedestrian">
        <walk from="718029298#0" to="333682049#11"/>
    </person>
    <person id="ped151" depart="288.19" type="ped_pedestrian">
        <walk from="682459916#1" to="363200547#3"/>
    </person>
    <person id="ped152" depart="290.09" type="ped_pedestrian">
        <walk from="149122118#7" to="-718029293#0"/>
    </person>
    <person id="ped153" depart="292.00" type="ped_pedestrian">
        <walk from="246568699#1" to="718029292#1"/>
    </person>
    <person id="ped154" depart="293.91" type="ped_pedestrian">
        <walk from="670519986#4" to="690818521"/>
    </person>
    <person id="ped155" depart="295.82" type="ped_pedestrian">
        <walk from="718029292#1" to="170420289#1"/>
    </person>
    <person id="ped156" depart="297.73" type="ped_pedestrian">
        <walk from="232848789#0" to="-507953319#1"/>
    </person>
    <person id="ped157" depart="299.64" type="ped_pedestrian">
        <walk from="665970473#11" to="718020303"/>
    </person>
    <person id="ped158" depart="301.54" type="ped_pedestrian">
        <walk from="265010621#2" to="388986338#4"/>
    </person>
    <person id="ped159" depart="303.45" type="ped_pedestrian">
        <walk from="149122131#5" to="746502593#12"/>
    </person>
    <person id="ped160" depart="305.36" type="ped_pedestrian">
        <walk from="690818522#15" to="837916149#1"/>
    </person>
    <person id="ped161" depart="307.27" type="ped_pedestrian">
        <walk from="670520364#1" to="706008134#3"/>
    </person>
    <person id="ped162" depart="309.18" type="ped_pedestrian">
        <walk from="-149835642" to="577631911#2"/>
    </person>
    <person id="ped163" depart="311.09" type="ped_pedestrian">
        <walk from="246569074#0" to="746502593#14"/>
    </person>
    <person id="ped164" depart="313.00" type="ped_pedestrian">
        <walk from="670519994#1" to="690818522#14"/>
    </person>
    <person id="ped165" depart="314.90" type="ped_pedestrian">
        <walk from="670520364#1" to="232848795#7"/>
    </person>
    <person id="ped166" depart="316.81" type="ped_pedestrian">
        <walk from="670519973#0" to="-577631918#2"/>
    </person>
    <person id="ped167" depart="318.72" type="ped_pedestrian">
        <walk from="690818522#8" to="689980762#0"/>
    </person>
    <person id="ped168" depart="320.63" type="ped_pedestrian">
        <walk from="192618338#7" to="679002406"/>
    </person>
    <person id="ped169" depart="322.54" type="ped_pedestrian">
        <walk from="670519986#2" to="198116994#0"/>
    </person>
    <person id="ped170" depart="324.45" type="ped_pedestrian">
        <walk from="-149835636#1" to="164410014#7"/>
    </person>
    <person id="ped171" depart="326.36" type="ped_pedestrian">
        <walk from="246568706#8" to="690818522#14"/>
    </person>
    <person id="ped172" depart="328.26" type="ped_pedestrian">
        <walk from="837295382#0" to="234434029#3"/>
    </person>
    <person id="ped173" depart="330.17" type="ped_pedestrian">
        <walk from="389246084#4" to="265010601#1"/>
    </person>
    <person id="ped174" depart="332.08" type="ped_pedestrian">
        <walk from="849976823" to="332871313#1"/>
    </person>
    <person id="ped175" depart="333.99" type="ped_pedestrian">
        <walk from="814258342" to="-577631996#6"/>
    </person>
    <person id="ped176" depart="335.90" type="ped_pedestrian">
        <walk from="837297858#1" to="157345937#2"/>
    </person>
    <person id="ped177" depart="337.81" type="ped_pedestrian">
        <walk from="837295374#1" to="232848795#4"/>
    </person>
    <person id="ped178" depart="339.72" type="ped_pedestrian">
        <walk from="-577631918#2" to="285211005#0"/>
    </person>
    <person id="ped179" depart="341.62" type="ped_pedestrian">
        <walk from="560742107#10" to="246568704#0"/>
    </person>
    <person id="ped180" depart="343.53" type="ped_pedestrian">
        <walk from="384474095#4" to="332617476#0"/>
    </person>
    <person id="ped181" depart="345.44" type="ped_pedestrian">
        <walk from="251501717" to="363197685#2"/>
    </person>
    <person id="ped182" depart="347.35" type="ped_pedestrian">
        <walk from="232848789#5" to="397864791"/>
    </person>
    <person id="ped183" depart="349.26" type="ped_pedestrian">
        <walk from="-1015181077#4" to="746485536#0"/>
    </person>
    <person id="ped184" depart="351.17" type="ped_pedestrian">
        <walk from="333682042#2" to="4848752#0"/>
    </person>
    <person id="ped185" depart="353.07" type="ped_pedestrian">
        <walk from="577631996#1" to="395028323"/>
    </person>
    <person id="ped186" depart="354.98" type="ped_pedestrian">
        <walk from="247773416#0" to="-333682049#14"/>
    </person>
    <person id="ped187" depart="356.89" type="ped_pedestrian">
        <walk from="395023349#1" to="246569071"/>
    </person>
    <person id="ped188" depart="358.80" type="ped_pedestrian">
        <walk from="246568704#0" to="689980324#0"/>
    </person>
    <person id="ped189" depart="360.71" type="ped_pedestrian">
        <walk from="4848752#0" to="246568696#12"/>
    </person>
    <person id="ped190" depart="362.62" type="ped_pedestrian">
        <walk from="246568701#0" to="266086958#2"/>
    </person>
    <person id="ped191" depart="364.53" type="ped_pedestrian">
        <walk from="265010614#1" to="246568690#1"/>
    </person>
    <person id="ped192" depart="366.43" type="ped_pedestrian">
        <walk from="-718029293#0" to="27241669#1"/>
    </person>
    <person id="ped193" depart="368.34" type="ped_pedestrian">
        <walk from="814258344#1" to="395028331"/>
    </person>
    <person id="ped194" depart="370.25" type="ped_pedestrian">
        <walk from="718029297#1" to="388986337#2"/>
    </person>
    <person id="ped195" depart="372.16" type="ped_pedestrian">
        <walk from="246568696#13" to="333682049#16"/>
    </person>
    <person id="ped196" depart="374.07" type="ped_pedestrian">
        <walk from="-1015181077#0" to="246409457#4"/>
    </person>
    <person id="ped197" depart="375.98" type="ped_pedestrian">
        <walk from="27241677#5" to="363200544"/>
    </person>
    <person id="ped198" depart="377.89" type="ped_pedestrian">
        <walk from="389670079#7" to="312405185#1"/>
    </person>
    <person id="ped199" depart="379.79" type="ped_pedestrian">
        <walk from="285211017#0" to="171300268#1"/>
    </person>
    <person id="ped200" depart="381.70" type="ped_pedestrian">
        <walk from="312713398#10" to="718029294#0"/>
    </person>
    <person id="ped201" depart="383.61" type="ped_pedestrian">
        <walk from="670519986#4" to="149835645#2"/>
    </person>
    <person id="ped202" depart="385.52" type="ped_pedestrian">
        <walk from="-397862652#1" to="332617478#14"/>
    </person>
    <person id="ped203" depart="387.43" type="ped_pedestrian">
        <walk from="389022028#0" to="246569075#0"/>
    </person>
    <person id="ped204" depart="389.34" type="ped_pedestrian">
        <walk from="682445834" to="59254382#2"/>
    </person>
    <person id="ped205" depart="391.24" type="ped_pedestrian">
        <walk from="395028326#0" to="198116982#2"/>
    </person>
    <person id="ped206" depart="393.15" type="ped_pedestrian">
        <walk from="170404063#1" to="-149835636#3"/>
    </person>
    <person id="ped207" depart="395.06" type="ped_pedestrian">
        <walk from="207807430#1" to="312713398#14"/>
    </person>
    <person id="ped208" depart="396.97" type="ped_pedestrian">
        <walk from="689980324#4" to="-333682049#8"/>
    </person>
    <person id="ped209" depart="398.88" type="ped_pedestrian">
        <walk from="27241664" to="388987278#3"/>
    </person>
    <person id="ped210" depart="400.79" type="ped_pedestrian">
        <walk from="167055439#0" to="397862664#4"/>
    </person>
    <person id="ped211" depart="402.70" type="ped_pedestrian">
        <walk from="322138616#1" to="207807429"/>
    </person>
    <person id="ped212" depart="404.60" type="ped_pedestrian">
        <walk from="389670080#0" to="-149122118#4"/>
    </person>
    <person id="ped213" depart="406.51" type="ped_pedestrian">
        <walk from="59254382#1" to="626297738#0"/>
    </person>
    <person id="ped214" depart="408.42" type="ped_pedestrian">
        <walk from="-577631911#2" to="27241676#0"/>
    </person>
    <person id="ped215" depart="410.33" type="ped_pedestrian">
        <walk from="157345930#2" to="825626378#2"/>
    </person>
    <person id="ped216" depart="412.24" type="ped_pedestrian">
        <walk from="332617478#4" to="-27241668#1"/>
    </person>
    <person id="ped217" depart="414.15" type="ped_pedestrian">
        <walk from="207807433#1" to="689980324#1"/>
    </person>
    <person id="ped218" depart="416.06" type="ped_pedestrian">
        <walk from="285454834#1" to="670519994#0"/>
    </person>
    <person id="ped219" depart="417.96" type="ped_pedestrian">
        <walk from="395028317#0" to="853378615#3"/>
    </person>
    <person id="ped220" depart="419.87" type="ped_pedestrian">
        <walk from="384474080#0" to="825427644#2"/>
    </person>
    <person id="ped221" depart="421.78" type="ped_pedestrian">
        <walk from="718029282#2" to="388234910#3"/>
    </person>
    <person id="ped222" depart="423.69" type="ped_pedestrian">
        <walk from="461222309#2" to="328162850#2"/>
    </person>
    <person id="ped223" depart="425.60" type="ped_pedestrian">
        <walk from="682458222#1" to="333682049#16"/>
    </person>
    <person id="ped224" depart="427.51" type="ped_pedestrian">
        <walk from="718029287#0" to="577631996#5"/>
    </person>
    <person id="ped225" depart="429.42" type="ped_pedestrian">
        <walk from="312713398#13" to="232848791#1"/>
    </person>