<?xml version="1.0" encoding="UTF-8"?>

<!-- generated on 2022-01-28 10:42:14 by Eclipse SUMO duarouter Version 1.9.2
<configuration xmlns:xsi="http://www.w3.org/2001/XMLSchema-instance" xsi:noNamespaceSchemaLocation="http://sumo.dlr.de/xsd/duarouterConfiguration.xsd">

    <input>
        <net-file value="C:\Users\OTSLCPS004\Sumo\2022-01-28-10-41-57\osm.net.xml"/>
        <route-files value="C:\Users\OTSLCPS004\Sumo\2022-01-28-10-41-57\osm.pedestrian.trips.xml"/>
    </input>

    <output>
        <output-file value="C:\Users\OTSLCPS004\Sumo\2022-01-28-10-41-57\osm.pedestrian.rou.xml"/>
        <alternatives-output value="C:\Users\OTSLCPS004\Sumo\2022-01-28-10-41-57\osm.pedestrian.rou.alt.xml"/>
    </output>

    <time>
        <begin value="0"/>
        <end value="3600"/>
    </time>

    <report>
        <no-warnings value="true"/>
        <ignore-errors value="true"/>
        <no-step-log value="true"/>
    </report>

</configuration>
-->

<routes xmlns:xsi="http://www.w3.org/2001/XMLSchema-instance" xsi:noNamespaceSchemaLocation="http://sumo.dlr.de/xsd/routes_file.xsd">
    <vType id="ped_pedestrian" vClass="pedestrian"/>
    <person id="ped0" type="ped_pedestrian" depart="0.00">
        <walk edges="389246084#0 389246084#8 389670077#0 389670077#1 389670077#2 389670079#4 389670079#5 395028317#1 395028317#0 340597120#0 340597119#2 340597119#1 626298359 682445867 682459925#12 682459925#13 682459925#14 353940886 682445857#1 682445857#2 59254381#0 59254381#1 27241686#0 27241686#1 27241686#2 400919425#4 400919425#3 400919425#2 400919425#1 400919425#0 817912283#2 -397862673#6 149835642 -149835642"/>
    </person>
    <person id="ped2" type="ped_pedestrian" depart="3.82">
        <walk edges="577631911#2 -577631998#2 -577631998#1 746502593#9 395023353#2 665970473#1 665970473#2 328162852#0 328162171 328162850#2 328162850#1 328162851#1 328162173 328162170 363200556#3 363200556#2 332617478#10 332871311#19 332871311#20 332871311#21 332871311#22 332871311#1 749122238 164410011#2 164410011#1 682459925#14 395028330"/>
    </person>
    <person id="ped3" type="ped_pedestrian" depart="5.73">
        <walk edges="718029283#0 718029282#1 -718029282#2 -718029282#3 157345945#0 157345945#1 157345926#1 157345926#0 -157345930#0 157345945#4 354858487#1 1015181078#3 312713398#4 689980351#0 689980344#0 690818522#8 690818522#7 690818522#6 690818522#5 690818522#4 690818522#3 333682043#3 333682043#1 461203109#1 312713398#21 312713398#22 312713398#23 312713398#24 312713398#25 312713398#26 312713398#27 312713398#28 -397862673#3"/>
    </person>
    <person id="ped4" type="ped_pedestrian" depart="7.63">
        <walk edges="27241669#4 27241669#3 27241669#2 27241669#1 257239019#2 171300277#2 171300277#1 998621643#2 998621643#1 285454834#1 44837353#1 825626376#0 665970473#6 665970473#7 665970473#8 -149835636#3 -149835636#2 -149835636#1 -149835636#0 -149835645#6 -149835645#7"/>
    </person>
    <person id="ped5" type="ped_pedestrian" depart="9.54">
        <walk edges="184604681 -27241669#2 -27241669#1 671323717#0 682459925#1 689415341 689415343 682445847#1 363200549#0 363200549#1 363200549#2 682445846 332871311#12 332871311#13 332871311#14 332871311#15 332871311#16 332617478#8 332617478#9 363200556#2 363200556#3 328162170 328162173 328162851#1"/>
    </person>
    <person id="ped6" type="ped_pedestrian" depart="11.45">
        <walk edges="-149835645#10 -397862673#0 -397862673#1 -397862673#2 -397862673#3 312713398#28 312713398#27 312713398#26 312713398#25 312713398#24 312713398#23 312713398#22 312713398#21 461203109#1 333682043#1 247798935#1 247798938#1 247798938#0 690818522#23 837916149#0 837916149#1 312713398#14 247795696 170404326#1 170419486#3 170404063#1"/>
    </person>
    <person id="ped7" type="ped_pedestrian" depart="13.36">
        <walk edges="389670078#0 389246087#1 670520001#0 333682045 333682042#3 333682042#2 333682042#1 333682042#0 62066588 651639707#3 651639707#2 651639707#1 354858484#1 354858487#4 246568698#0 246568697#1 246568693 313601073 246568690#0 354858487#1 1015181078#3 312713398#4 312713398#5 689980348#1 -333682049#1 -333682049#5 -333682049#7 -333682049#8 -333682049#9 333682049#10"/>
    </person>
    <person id="ped8" type="ped_pedestrian" depart="15.27">
        <walk edges="192618338#3 192618338#4 192618338#5 704585580#0 -706008137 706008136 560742107#6 -27241668#5 -27241668#6 266086967#2 266086967#1 266086967#0 671327130#1 389670080#1 389670080#0 287907329#3 287907329#2 395023341 340597120#3 340597119#2 340597119#1 626298359 682445867 682459925#12 682459925#13 682459925#14 164410011#1 164410011#2 749122238 332871311#1 332871311#22 363200558#0"/>
    </person>
    <person id="ped9" type="ped_pedestrian" depart="17.18">
        <walk edges="670520362#0 670520000#1 395028338#0 670519999#0 670519999#1 287907329#4 287907329#3 287907329#2 395023341 340597120#3 340597119#2 340597119#1 626298359 682445867 682459925#12 682459925#13 682459925#14 164410011#1 164410011#2 749122238 332871311#1 332871311#22 332871311#21 332871311#20 332871311#19 332871311#18 332871311#17 332871311#16 332871311#15 332871311#14 363200559 363200551 363200553#0 363200553#1 849983642#0 951326912#1 171300278#1 257239016#1 257239016#0 23350417#5 23350417#4 -149122118#1 -149122118#2 -149122118#3 -149122118#4 -149122118#5 -149122118#6"/>
    </person>
    <person id="ped10" type="ped_pedestrian" depart="19.09">
        <walk edges="670519998#2 265010588#4 389670081#0 389670079#3 389670079#4 389670079#5 395028317#1 395028317#0 340597120#0 340597119#2 340597119#1 626298359 682445867 682459925#12 682459925#13 682459925#14 353940886 682445857#1 682445857#2 59254381#0 59254381#1 59254381#2 59254381#3 -149835636#3 -149835636#2 -149835636#1 -149835636#0 -149835645#5 149835645#4 -397862677 397862675#2"/>
    </person>
    <person id="ped11" type="ped_pedestrian" depart="20.99">
        <walk edges="246571145#11 746485536#4 232848789#14 99180654#3 -1015181077#3 -1015181077#1 -1015181077#0 1015181076#0 247773416#2 59254381#0 171300278#3 171300278#2 171300278#1 257239016#1 257239016#0 23350417#5 23350417#4 -149122118#1 -149122118#2 -149122118#3 -149122118#4 -149122118#5 -149122118#6 -149122118#7 -149122118#8 -149122118#9 -149123003#2 -149123003#1 149123003#0"/>
    </person>
    <person id="ped12" type="ped_pedestrian" depart="22.90">
        <walk edges="825626378#1 825626378#0 328162852#2 328162852#1 328162852#0 665970473#3 665970473#4 247773416#4 247773416#3 247773416#2 247773416#1 247773416#0 246568706#20 246568706#21 246568706#0 59254388#3 59254388#4 354858487#1 246568690#0 313601073 246568693 246568697#1 246568698#0 354858487#4 246568705#4 718082602#0 718082601#0 718082601#1 718082600#2 718082599#0 39726789#0 39726789#1 39726789#2 39726789#3 246569229"/>
    </person>
    <person id="ped13" type="ped_pedestrian" depart="24.81">
        <walk edges="-397862682 -149835645#6 -149835636#0 -149835636#1 -149835636#2 -149835636#3 665970473#8 665970473#7 665970473#6 825626376#0 44837353#1 285454834#1 171300278#1 257239016#1 257239016#0 23350417#5 23350417#4 -149122118#1 -149122118#2 -397864774"/>
    </person>
    <person id="ped14" type="ped_pedestrian" depart="26.72">
        <walk edges="689980319#1 -333682053#1 -333682053#2 388986338#4 388986338#5 689980341#0 -27241677#5 609786147#1 232848789#2 232848791#0 232848791#1 232848791#2 99180655#5 232848795#4 232848795#3 232848794#0 246571145#9 232848790#2 746485536#4 232848789#14 99180654#3 -1015181077#3 246568706#17 246568706#18 246568706#19 246568706#20 247773415 372185215#2 247773417 247768519#2 247768519#1 395028337 395028319 340597118#0 340597120#3 395023341 287907329#2 287907329#3 389670080#0 389670080#1 671327130#1 266086967#0 266086967#1 389670151#1 389246084#1 384474093#0"/>
    </person>
    <person id="ped15" type="ped_pedestrian" depart="28.63">
        <walk edges="670519999#1 27241673#1 27241673#0 27241668#10 384474090#1 560742107#11 560742107#12"/>
    </person>
    <person id="ped16" type="ped_pedestrian" depart="30.54">
        <walk edges="332871313#1 332871313#2 682459925#13 682459925#14 27241663 354858502#1 354858502#0 372185215#2 247773415 246568706#20 246568706#19 246568706#18 246568706#17 -1015181077#3 99180654#3 232848789#14 746485536#4 232848790#2 246571145#9 232848794#0 232848795#3 232848795#4 99180655#5 232848791#2 232848791#1 232848791#0 232848789#2 609786147#1 -27241677#5 -27241677#6 27241677#7 27241677#8 837916140#2 837916140#1"/>
    </person>
    <person id="ped17" type="ped_pedestrian" depart="32.44">
        <walk edges="247798935#0 333682043#3 690818522#3 690818522#4 690818522#5 690818522#6 690818522#7 690818522#8 689980344#0 689980351#0 312713398#4 1015181078#3 354858487#1 246568690#0 313601073 246568693 246568697#1 246568698#0 354858487#4 354858484#1 651639707#1 651639707#2 651639707#3 62066588 333682042#0 333682042#1 333682042#2 333682042#3 333682052#0 333682052#1 333682052#2"/>
    </person>
    <person id="ped19" type="ped_pedestrian" depart="36.26">
        <walk edges="690818522#1 690818522#2 690818522#3 690818522#4 690818522#5 690818522#6 690818522#7 690818522#8 689980344#0 689980351#0 312713398#4 1015181078#3 354858487#1 246568690#0 313601073 246568693 246568697#1 246568698#0 354858487#4 354858484#1 651639707#1 651639707#2 651639707#3 62066588 265010581#1 389245309#2 388234911#1 265010574 388234910#2 670067340 363197672 363197685#3"/>
    </person>
    <person id="ped20" type="ped_pedestrian" depart="38.17">
        <walk edges="397864773#3 -149122121#1 -149122118#4 -149122118#3 -149122118#2 -149122118#1 23350417#4 23350417#5 257239016#0 257239016#1 171300278#1 951326912#1 849983642#0 363200553#1 363200553#0 363200551 363200559 332871311#14 332871311#15 332871311#16 332871311#17 332871311#18 332871311#19 332871311#20 332871311#21 332871311#22 332871311#1 749122238 164410011#2 164410011#1 682459925#14 682459925#13 682459925#12 682445867 626298359 340597119#1 340597119#2 340597120#3 395023341 287907329#2 287907329#3 287907329#4 670519999#1 27241673#1 27241673#0 265010604 -265010601#0 -265010601#1"/>
    </person>
    <person id="ped21" type="ped_pedestrian" depart="40.08">
        <walk edges="198116994#1 198116994#0 198116982#1 198116992 198116989#1 198117000 164410009#0 164410009#1 843362135 207807396 363197673 363197685#0 363197685#1 363197685#2 363197685#3 363197672 670067340 388234910#2 265010574 388234911#1 389245309#2 265010581#1 62066584 62066589#0 62066589#1 354858505#1 246410263#0"/>
    </person>
    <person id="ped22" type="ped_pedestrian" depart="41.99">
        <walk edges="-388987244#1 397862651#2 397862651#3 397862651#4 388986338#0 689980319#0 689980319#1 689980324#0 837916140#0 837916137#0 27241677#11 354858483#6 354858483#5 354858483#4 354858483#1 62066589#1 62066589#0 62066584 265010581#1 389245309#2 388234911#1 265010574 388234910#2 670067340 363197672 363197685#3 363197685#2 363197685#1 363197685#0 363197673 207807396"/>
    </person>
    <person id="ped24" type="ped_pedestrian" depart="45.80">
        <walk edges="389244907#2 389244907#1 389244907#0 670520362#0 670520000#1 395028338#0 670519999#0 670519999#1 287907329#4 287907329#3 287907329#2 395023341 340597120#3 340597118#0 395028319 395028337 247768519#1 247768519#2 247773417 1015181076#1 247773416#1"/>
    </person>
    <person id="ped25" type="ped_pedestrian" depart="47.71">
        <walk edges="247797785 312713398#12 312713398#13 247795696 170404326#1 170419486#3 170419486#2"/>
    </person>
    <person id="ped26" type="ped_pedestrian" depart="49.62">
        <walk edges="232848795#7 232848789#0 232848789#1 232848789#2 609786147#1 -27241677#5 -27241677#6 -27241677#7 -27241677#8 -27241677#9 -27241677#10 -27241677#11 354858483#6 247798937#1 333682043#4 837297860#1 333682049#8 333682049#9 784311048#0"/>
    </person>
    <person id="ped27" type="ped_pedestrian" depart="51.53">
        <walk edges="389670077#0 265010588#0 987049868#1 987049868#0 670520001#1 389246086#1 384474080#0 384474099#1"/>
    </person>
    <person id="ped28" type="ped_pedestrian" depart="53.44">
        <walk edges="149835645#5 -149835636#0 -149835636#1 -149835636#2 -149835636#3 59254381#3 59254381#2 59254381#1 59254381#0 682445857#2 682445857#1 353940886 682459925#14 682459925#13 682459925#12 682445867 626298359 340597119#1 340597119#2 340597120#3 395023341 287907329#2 287907329#3 287907329#4 670519999#1 27241673#1 27241673#0 27241668#10 384474090#1 560742107#11"/>
    </person>
    <person id="ped29" type="ped_pedestrian" depart="55.35">
        <walk edges="149835631#1 -149835631#2 149835636#1 149835636#2 149835636#3 45177486 353940876#0 353940876#1 312713398#22 312713398#21 461203109#1 333682043#1 247798935#1 247798938#1 247798936#0"/>
    </person>
    <person id="ped30" type="ped_pedestrian" depart="57.26">
        <walk edges="951326912#1 849983642#0 363200553#1 363200553#0 363200551 363200559 332871311#14 332871311#15 332871311#16 332871311#17 332871311#18 332871311#19 332871311#20 332871311#21 332871311#22 332871311#1 749122238 164410011#2 164410011#1 682459925#14 682459925#13 682459925#12 682445867 626298359 340597119#1 340597119#2 340597120#3 395023341 287907329#2 287907329#3 389670080#0 389670080#1 671327130#1 266086967#0 266086967#1 389670151#1 389246084#1"/>
    </person>
    <person id="ped31" type="ped_pedestrian" depart="59.16">
        <walk edges="340597120#0 340597120#3 395023341 287907329#2 287907329#3 287907329#4 670519999#1 670519999#0 395028338#0 670520000#1 333682044#1 265010574 388234911#1 389245309#2 265010581#1 62066588 651639707#3 651639707#2 651639707#1 -626297740#0 246568705#2 718082602#1 718082601#0 718082601#1 718082600#2 718082599#0 39726789#0 39726788#1 39726788#2"/>
    </person>
    <person id="ped32" type="ped_pedestrian" depart="61.07">
        <walk edges="682459936#3 665970462#0"/>
    </person>
    <person id="ped33" type="ped_pedestrian" depart="62.98">
        <walk edges="198116997#2 198116994#1 198116987 363197810 363197808 363197809 207807431#2 207807399 207807401 384474084 384474082#4 384474086#1 384474086#0 384474080#3 389246086#1 389246220#1 333682052#0 333682042#3 333682042#2 333682042#1 333682042#0 62066588 651639707#3 651639707#2 651639707#1 354858484#1 -157345943#1 -157345943#2 157345937#2 157345945#0 157345945#1 157345945#2 -157345930#2"/>
    </person>
    <person id="ped34" type="ped_pedestrian" depart="64.89">
        <walk edges="246568705#1 246568705#2 246568705#3 246568705#4 354858487#4 246568698#0 246568697#1 246568693 313601073 246568690#0 354858487#1 246568702#2 246568706#5 704585572#0 704585572#1 704585572#2 246568706#11 609786145#1 -1015181077#4 99180654#3 99180654#2 99180654#1 99180654#0 232848795#8"/>
    </person>
    <person id="ped35" type="ped_pedestrian" depart="66.80">
        <walk edges="170420289#2 170420289#1 825427643 825427640 170416743 312713398#17 312713398#18 312713398#19 312713398#20 312713398#21 312713398#22 312713398#23 312713398#24 312713398#25 312713398#26 312713398#27 312713398#28 817912283#0"/>
    </person>
    <person id="ped36" type="ped_pedestrian" depart="68.71">
        <walk edges="704585576 312405190#4 718082605#0 -265010621#1 -265010621#2 -265010621#3 333682042#2 333682042#1 333682042#0 62066588 651639707#3 651639707#2 -626297739#1 246568705#0"/>
    </person>
    <person id="ped37" type="ped_pedestrian" depart="70.61">
        <walk edges="389670079#9 670519997#0 265010598#1 265010598#4 389670077#1 265010588#1"/>
    </person>
    <person id="ped38" type="ped_pedestrian" depart="72.52">
        <walk edges="718082600#1 718082600#3 718082601#1 718082601#0 718082602#1 246568705#2 -626297740#0 651639707#1 651639707#2 651639707#3 62066588 265010581#1 389245309#2 388234911#1 265010574 333682044#1 670520000#1 395028338#0 670519999#0 670519999#1 287907329#4 287907329#3"/>
    </person>
    <person id="ped39" type="ped_pedestrian" depart="74.43">
        <walk edges="232848795#3 232848794#0 246571145#9 232848790#2 746485536#4 232848789#14 99180654#3 -1015181077#4 609786145#1 246568706#11 704585572#2 704585572#1 704585572#0 246568706#5 246568702#2 354858487#1 246568690#0 313601073 246568693 246568697#1 246568698#0 354858487#4 354858484#1 651639707#1 651639707#2 651639707#3 62066588 333682042#0 333682042#1 333682042#2 333682042#3 333682052#0 389246220#1 389246086#1 384474080#3 384474086#0 384474086#1 384474082#4 384474084 207807401 207807399 207807431#3"/>
    </person>
    <person id="ped40" type="ped_pedestrian" depart="76.34">
        <walk edges="353940882#0 397862654#0 388986802#0 397862651#0 312713438#3 312713438#2 232848795#9 99180654#0 99180655#8 246571145#1 232848794#2"/>
    </person>
    <person id="ped41" type="ped_pedestrian" depart="78.25">
        <walk edges="363200549#2 682445846 332871311#12 332871311#13 332871311#14 332871311#15 332871311#16 332871311#17 332871311#18 332871311#19 332871311#20 363200560#0 363200557 247769108#1 247769107#1 354858502#0 354858505#2 246410263#1 59254388#4 354858487#1 157345945#4 -157345930#0 157345926#0 157345926#1 157345945#1 157345945#0 -718029282#3 -718029282#2 718082603#0 718029284#0 718029286#1 718029286#0 718029287#1"/>
    </person>
    <person id="ped42" type="ped_pedestrian" depart="80.16">
        <walk edges="265010601#0 384474097#1 560742107#12 198117538#0 198117547 192618338#0"/>
    </person>
    <person id="ped43" type="ped_pedestrian" depart="82.07">
        <walk edges="99180655#6 232848795#4 232848795#3 232848794#0 246571145#9 232848790#2 746485536#4 232848789#14 99180654#3 -1015181077#3 -1015181077#1 -1015181077#0 1015181076#0 247773416#2 247773416#3 247773416#4 665970473#4 665970473#3 665970473#2 328162848#0 328162848#1 328162849#3 328162855#1 328162855#0 328162853#1 328162854"/>
    </person>
    <person id="ped44" type="ped_pedestrian" depart="83.97">
        <walk edges="-397862678 -149835645#3 -149835645#4 -149835645#5 -149835636#0 -149835636#1 -149835636#2 -149835636#3 59254381#3 59254381#2 59254381#1 59254381#0 395028333#0 247769106 363200557 749122239#0 749122239#1 332871311#0 332871311#1 332871311#2 332871311#3 332871311#4 332871311#5 332871311#6 207807408#0 207807408#1 167055442#3 167055442#2 167055442#1 167055442#0 285211024#4 285211024#3 285211024#2 285211024#1 285211024#0 285211020 285211014 285211009 285211027#2 285211027#3 285211027#4 670519996#0 -265010620#2"/>
    </person>
    <person id="ped45" type="ped_pedestrian" depart="85.88">
        <walk edges="-577631918#5 -577631918#4 746502593#9 395023353#2 665970473#1 665970473#2 665970473#3 665970473#4 247773416#4 247773416#3 59254381#1 27241686#0 27241686#1 353940877#0 333682046#2 333682046#1 -388987244#1 388987242"/>
    </person>
    <person id="ped46" type="ped_pedestrian" depart="87.79">
        <walk edges="670519983#2 486067307 4853038#1 670519989#0 285211022#1 285211022#2 285211022#3 670519992#1 27241671#0"/>
    </person>
    <person id="ped47" type="ped_pedestrian" depart="89.70">
        <walk edges="-27241677#6 -27241677#7 -27241677#8 -27241677#9 -27241677#10 -27241677#11 354858483#6 247798937#1 247798937#0"/>
    </person>
    <person id="ped48" type="ped_pedestrian" depart="91.61">
        <walk edges="99180655#3 246414121#1 232848795#0 232848795#1 232848792 232848790#1 232848790#2 746485536#4 232848789#14 99180654#3 -1015181077#3 246568706#17 246568706#18 246568706#19 246568706#20 247773415 372185215#2 59254388#0 395028333#0 247769106 363200557 363200560#0 332871311#20"/>
    </person>
    <person id="ped49" type="ped_pedestrian" depart="93.52">
        <walk edges="837916137#0 27241677#11 354858483#6 247798937#1 333682043#4 333682043#3 247798935#0 626294360#4 690818521"/>
    </person>
    <person id="ped50" type="ped_pedestrian" depart="95.43">
        <walk edges="-149122131#1 -149122120#0 -149122120#1 -149122118#3 -149122118#2 -149122118#1 23350417#4 23350417#5 257239016#0 257239016#1 171300278#1 951326912#1 849983642#0 363200553#1 363200553#0 363200551 363200559 332871311#14 332871311#15 507953318 332871311#8 332871311#7 207807408#0 207807408#1 167055442#3 167055442#2 395028323 251501717 389670079#8 389670079#9 670519997#0 265010585#0 4848752#2"/>
    </person>
    <person id="ped51" type="ped_pedestrian" depart="97.33">
        <walk edges="395028338#0 670519999#0 670519999#1 287907329#4 287907329#3 287907329#2 395023341 340597120#3 340597119#2 340597119#1 626298359 682445867 682459925#12 332871313#2"/>
    </person>
    <person id="ped52" type="ped_pedestrian" depart="99.24">
        <walk edges="232848795#7 232848795#8 232848795#9 312713438#1 312713438#0 246568706#19 246568706#20 247773415 372185215#2 247773417 247768519#2 247768519#1 395028337 395028319 340597118#0 340597120#3 395023341 287907329#2 287907329#3 389670080#0 389670080#1 671327130#1 266086967#0 266086967#1 389670151#1 389246084#1 389246084#2 389246084#3"/>
    </person>
    <person id="ped53" type="ped_pedestrian" depart="101.15">
        <walk edges="-577631961 -577631918#4 746502593#9 395023353#2 665970473#1 665970473#2 328162852#0 328162171 328162850#2 328162850#1 328162851#1 328162173 328162170 363200556#3 363200556#2 363200556#1 363200556#0 332871311#6 207807408#0 207807408#1 167055442#3 167055442#2 167055442#1 167055442#0 285211024#4 285211024#3 285211024#2 285211024#1 285211024#0 285211005#0"/>
    </person>
    <person id="ped54" type="ped_pedestrian" depart="103.06">
        <walk edges="285211027#1 285211027#0 670519992#1 27241671#1 27241671#2 389670081#0 389670079#3 389670079#4 389670079#5 395028317#1 395028317#0 340597120#0 340597119#2 340597119#1 626298359 682445867 682459925#12 682459925#13 682459925#14 353940886 682445857#1 682445857#2 395028333#2 395028333#3 665970473#4 665970473#5 825626376#0 825626376#1"/>
    </person>
    <person id="ped55" type="ped_pedestrian" depart="104.97">
        <walk edges="704585573#1 704585572#2 246568706#11 609786145#1 -1015181077#4 99180654#3 232848789#14 746485536#4 232848790#2 232848790#1 232848792 232848795#1 232848795#0"/>
    </person>
    <person id="ped56" type="ped_pedestrian" depart="106.88">
        <walk edges="328162848#0 665970473#2 665970473#3 665970473#4 247773416#4 247773416#3 247773416#2 247773416#1 247773416#0 246568706#20 246568706#21 246568706#0 59254388#3 59254388#4 354858487#1 157345945#4 -157345930#0 157345926#0 157345926#1 157345945#1 157345945#0 157345937#2"/>
    </person>
    <person id="ped57" type="ped_pedestrian" depart="108.79">
        <walk edges="718082597 718082601#0 718082602#0 246568705#4 354858487#4 246568698#0 246568697#1 246568693 313601073 246568690#0 354858487#1 1015181078#3 312713398#4 689980351#0 689980344#0 690818522#8 690818522#7 690818522#6 690818522#5"/>
    </person>
    <person id="ped58" type="ped_pedestrian" depart="110.69">
        <walk edges="246568695#1 246568693 246568697#1 246568698#0 354858487#4 354858484#1 651639707#1 651639707#2 651639707#3 62066588 265010581#1 389245309#2"/>
    </person>
    <person id="ped59" type="ped_pedestrian" depart="112.60">
        <walk edges="384474099#0 333682052#1 389246220#1 389246086#1 670520001#1 670519999#1 287907329#4 287907329#3 287907329#2 395023341 340597120#3 340597119#2 340597119#1 626298359 682445867 682459925#12 682459925#13 682459925#14 164410011#1 164410011#2 749122238 332871311#1 332871311#22 332871311#21 332871311#20 332871311#19 332871311#18 332871311#17 332871311#16 332871311#15 332871311#14 363200559 363200551 363200553#0 363200553#1 849983642#0 951326912#1 171300278#1 257239016#1 257239016#0 23350417#5 23350417#4 -149122118#1 -149122118#2 -149122118#3 -149122120#1 -149122120#0 149122131#1"/>
    </person>
    <person id="ped60" type="ped_pedestrian" depart="114.51">
        <walk edges="619426687 363200556#2 332617478#10 332871311#19 332871311#20 363200560#0 363200557 247769106 395028333#0 59254381#0 59254381#1 27241686#0 27241686#1 27241686#2 353940876#0 353940876#1 312713398#22 312713398#21 461203109#1 333682043#1"/>
    </person>
    <person id="ped61" type="ped_pedestrian" depart="116.42">
        <walk edges="665970464#3 746502593#5 682445844#2 171300278#1 951326912#1 849983642#0 363200553#1 363200553#0 363200551 363200559 332871311#14 332871311#15 332871311#16 332871311#17 332871311#18 332871311#19 332871311#20 332871311#21 332871311#22"/>
    </person>
    <person id="ped62" type="ped_pedestrian" depart="118.33">
        <walk edges="-1015181077#1 246568706#15 718029301#5 718029301#4 718029301#3 718029301#2 718029301#1 718029301#0 246568706#2"/>
    </person>
    <person id="ped63" type="ped_pedestrian" depart="120.24">
        <walk edges="-149835628#0 312713398#27 312713398#26 312713398#25 397862655#0 400919425#4 27241686#2 27241686#1 27241686#0 59254381#1 247773416#3 247773416#4 665970473#4 665970473#3 328162852#0 328162852#1 746502593#11"/>
    </person>
    <person id="ped64" type="ped_pedestrian" depart="122.14">
        <walk edges="704585580#1 -706008137 706008136 560742107#5 670519991#0 -27241668#3 27241668#2 670519993#1 285211027#1 285211009 285211014 285211020 285211024#0 285211024#1 285211024#2 285211024#3 285211024#4 167055442#0 167055442#1 167055442#2 167055442#3 207807408#1 207807408#0 332871311#6 363200556#0 363200556#1 363200556#2 363200556#3 328162170 328162173 682458237#1"/>
    </person>
    <person id="ped65" type="ped_pedestrian" depart="124.05">
        <walk edges="246568698#1 246568705#6 354858484#1 651639707#1 651639707#2 651639707#3 62066588 333682042#0 333682042#1 333682042#2 333682042#3 333682045 987049868#0 987049868#1 265010588#0 265010588#1 -27241671#2"/>
    </person>
    <person id="ped66" type="ped_pedestrian" depart="125.96">
        <walk edges="704585578 704585577#1 389246084#2 389246084#1 389670151#1 266086967#1 266086967#0 671327130#1 389670080#1 389670080#0 287907329#3 287907329#2 395023341 340597120#3 340597119#2 340597119#1 626298359 682445867 682459925#11 682459925#10 682459925#9 820360609#1"/>
    </person>
    <person id="ped67" type="ped_pedestrian" depart="127.87">
        <walk edges="-397862673#0 -397862673#1 -397862673#2 -397862673#3 312713398#28 312713398#27 312713398#26 312713398#25 312713398#24 312713398#23 312713398#22 312713398#21 461203109#1 333682043#1 333682043#3 837297860#1 -333682049#7 -333682049#5 837297858#0 312713398#9"/>
    </person>
    <person id="ped68" type="ped_pedestrian" depart="129.78">
        <walk edges="-333682049#13 -333682049#12 -333682049#11 -333682049#10 333682049#9 333682049#8 837297860#1 333682043#4 247798937#1 354858483#6 -27241677#11 -27241677#10 -27241677#9 -27241677#8 -27241677#7 -27241677#6 -27241677#5 -27241677#4 609786146#0"/>
    </person>
    <person id="ped69" type="ped_pedestrian" depart="131.69">
        <walk edges="626294360#2 689980316#0 333682053#0 -333682053#1 -333682053#2 388986338#4 388986338#5 689980341#0 -27241677#5 609786147#1 232848789#2 232848791#0 232848791#1 232848791#2 99180655#5 232848795#4 232848795#3 232848794#0 246571145#9 232848790#2 746485536#4 232848789#14 99180654#3 -1015181077#3 718029294#0 -718029293#2"/>
    </person>
    <person id="ped70" type="ped_pedestrian" depart="133.60">
        <walk edges="312713398#14 312713398#13 312713398#12 312713398#11 312713398#10 333682049#8"/>
    </person>
    <person id="ped71" type="ped_pedestrian" depart="135.50">
        <walk edges="232848795#3 232848795#2 232848792 232848790#0 232848789#12 232848789#11 1015181077#6 1015181077#7 689980344#0 690818522#9"/>
    </person>
    <person id="ped72" type="ped_pedestrian" depart="137.41">
        <walk edges="27241671#2 389670081#0 389670079#3 389670079#4 389670079#5 395028317#1 395028317#0 340597120#0 340597119#2 340597119#1 626298359 682445867 682459925#12 682459925#13 682459925#14 353940886 682445857#1 682445857#2 59254381#0 59254381#1 27241686#0 27241686#1 27241686#2 353940876#0 353940876#1 312713398#22 312713398#21 312713398#20 312713398#19 312713398#18 312713398#17 170416743 825427640 825427643 170420289#1 170420289#2 170420289#3 170420356"/>
    </person>
    <person id="ped73" type="ped_pedestrian" depart="139.32">
        <walk edges="333682043#1 333682043#3 690818522#3 690818522#4 690818522#5 690818522#6 690818522#7 690818522#8 689980344#0 689980351#0 312713398#4 1015181078#3 354858487#1 246568690#0 313601073 246568693 246568697#1 246568698#0 354858487#4 354858484#1 651639707#1 651639707#2 651639707#3 62066588 333682042#0 333682042#1 333682042#2 -265010621#3 -265010621#2 -265010621#1 -265010621#0 265010591 -265010601#1 384474097#1 560742107#13"/>
    </person>
    <person id="ped74" type="ped_pedestrian" depart="141.23">
        <walk edges="170404074#0 170419078#1 170404068 170419486#2 170419486#3 170404326#1 247795696 312713398#13 312713398#12 312713398#11 312713398#10 -333682049#8 -333682049#7 -333682049#5 -333682049#1 -333682049#0 354858483#1 689980762#2 246568703#2"/>
    </person>
    <person id="ped75" type="ped_pedestrian" depart="143.14">
        <walk edges="99180655#1 99180655#2 246414121#1 232848795#0 232848795#1 232848792 232848790#1 232848790#2 746485536#4 232848789#14 99180654#3 -1015181077#3 246568706#17 246568706#18 246568706#19 246568706#20 247773415 372185215#2 247773417 247768519#2 247768519#1 395028337 395028319 340597118#0 340597120#3 395023341 287907329#2 287907329#3 389670080#0 389670078#2 389670078#1 389670078#0"/>
    </person>
    <person id="ped76" type="ped_pedestrian" depart="145.05">
        <walk edges="285211010 285211008 285211018#0 285211018#1 285211017#1 285211024#2 285211024#3 285211024#4 167055442#0 167055442#1 167055442#2 167055442#3 207807408#1 332617478#3"/>
    </person>
    <person id="ped77" type="ped_pedestrian" depart="146.96">