<?xml version="1.0" encoding="UTF-8"?>
<!-- generated on 2022-03-08 13:57:29.689678 by $Id$ v1_9_2+0000-4206cfae24
  options: -n osm.net.xml -r random_200.rou.xml -e 200 -l
-->
<routes xmlns:xsi="http://www.w3.org/2001/XMLSchema-instance" xsi:noNamespaceSchemaLocation="http://sumo.dlr.de/xsd/routes_file.xsd">
    <trip id="0" depart="0.00" from="405795842#1" to="-149122118#5"/>
    <trip id="1" depart="1.00" from="171300278#3" to="149122128#1"/>
    <trip id="2" depart="2.00" from="4853035#0" to="405795841"/>
    <trip id="3" depart="3.00" from="62066584" to="-27241668#8"/>
    <trip id="4" depart="4.00" from="266086974#1" to="-149122118#9"/>
    <trip id="5" depart="5.00" from="149122128#1" to="27242140#1"/>
    <trip id="6" depart="6.00" from="-149122118#7" to="149122118#10"/>
    <trip id="7" depart="7.00" from="405795843#2" to="333682049#7"/>
    <trip id="8" depart="8.00" from="149122128#1" to="354858505#1"/>
    <trip id="9" depart="9.00" from="550281563" to="-1015181077#6"/>
    <trip id="10" depart="10.00" from="550281563" to="406000909#1"/>
    <trip id="11" depart="11.00" from="24835448" to="-397862673#7"/>
    <trip id="12" depart="12.00" from="820214408" to="257239010#2"/>
    <trip id="13" depart="13.00" from="-27241669#4" to="-27241669#4"/>
    <trip id="14" depart="14.00" from="582230759#0" to="397862664#4"/>
    <trip id="15" depart="15.00" from="550281563" to="461222309#2"/>
    <trip id="16" depart="16.00" from="333682053#1" to="888066407"/>
    <trip id="17" depart="17.00" from="265010588#4" to="353940876#2"/>
    <trip id="18" depart="18.00" from="550281566" to="397862664#4"/>
    <trip id="19" depart="19.00" from="582338491#0" to="354858498#1"/>
    <trip id="20" depart="20.00" from="4848758" to="-149835645#10"/>
    <trip id="21" depart="21.00" from="149835645#10" to="23605011#1"/>
    <trip id="22" depart="22.00" from="-27241668#1" to="149835645#10"/>
    <trip id="23" depart="23.00" from="-27241671#1" to="171300278#3"/>
    <trip id="24" depart="24.00" from="405795841" to="265010588#0"/>
    <trip id="25" depart="25.00" from="265010581#0" to="149122118#10"/>
    <trip id="26" depart="26.00" from="171300278#3" to="810346011#3"/>
    <trip id="27" depart="27.00" from="405795843#1" to="397862664#4"/>
    <trip id="28" depart="28.00" from="-397862673#7" to="461222309#2"/>
    <trip id="29" depart="29.00" from="-397862673#7" to="265010598#4"/>
    <trip id="30" depart="30.00" from="987049868#0" to="400919425#2"/>
    <trip id="31" depart="31.00" from="354858483#7" to="405795842#2"/>
    <trip id="32" depart="32.00" from="550281566" to="4853044#1"/>
    <trip id="33" depart="33.00" from="149835645#10" to="-149122128#1"/>
    <trip id="34" depart="34.00" from="24059844" to="171300278#2"/>
    <trip id="35" depart="35.00" from="149122118#4" to="810346011#3"/>
    <trip id="36" depart="36.00" from="59254382#1" to="24059844"/>
    <trip id="37" depart="37.00" from="405795844#1-AddedOnRampEdge" to="266086965#1"/>
    <trip id="38" depart="38.00" from="651639707#1" to="266086989#1"/>
    <trip id="39" depart="39.00" from="171300278#2" to="149835645#7"/>
    <trip id="40" depart="40.00" from="354858487#3" to="171300268#3"/>
    <trip id="41" depart="41.00" from="363200560#0" to="682459916#1"/>
    <trip id="42" depart="42.00" from="265010616#0" to="149122118#9"/>
    <trip id="43" depart="43.00" from="998621643#2" to="27242140#1"/>
    <trip id="44" depart="44.00" from="-27241669#2" to="-149835645#10"/>
    <trip id="45" depart="45.00" from="-27241677#9" to="397862664#4"/>
    <trip id="46" depart="46.00" from="4854085" to="266086980"/>
    <trip id="47" depart="47.00" from="-171300268#2" to="265010601#1"/>
    <trip id="48" depart="48.00" from="998621643#2" to="333682045"/>
    <trip id="49" depart="49.00" from="888066407" to="62066589#1"/>
    <trip id="50" depart="50.00" from="-149122118#10" to="45019024"/>
    <trip id="51" depart="51.00" from="461203108#1" to="333682049#15"/>
    <trip id="52" depart="52.00" from="171300278#2" to="400919425#3"/>
    <trip id="53" depart="53.00" from="-27242140#1" to="266086980"/>
    <trip id="54" depart="54.00" from="27241668#1" to="810346011#3"/>
    <trip id="55" depart="55.00" from="59254382#1" to="171300268#3"/>
    <trip id="56" depart="56.00" from="285454834#1" to="-682459916#1"/>
    <trip id="57" depart="57.00" from="651637968#1" to="651637968#0"/>
    <trip id="58" depart="58.00" from="23350417#5" to="400919425#2"/>
    <trip id="59" depart="59.00" from="397862664#4" to="-397862673#7"/>
    <trip id="60" depart="60.00" from="4853044#0" to="333682049#15"/>
    <trip id="61" depart="61.00" from="4854085" to="333682046#1"/>
    <trip id="62" depart="62.00" from="-1015181077#1" to="24835448"/>
    <trip id="63" depart="63.00" from="-149122118#2" to="810346011#3"/>
    <trip id="64" depart="64.00" from="59254382#2" to="59254382#1"/>
    <trip id="65" depart="65.00" from="24059844" to="-149835645#8"/>
    <trip id="66" depart="66.00" from="59254382#2" to="810346011#3"/>
    <trip id="67" depart="67.00" from="-27241668#8" to="27241669#4"/>
    <trip id="68" depart="68.00" from="-171300268#3" to="4853035#4"/>
    <trip id="69" depart="69.00" from="4853044#1" to="-333682049#15"/>
    <trip id="70" depart="70.00" from="27241669#4" to="333682053#4"/>
    <trip id="71" depart="71.00" from="171300278#2" to="651637968#1"/>
    <trip id="72" depart="72.00" from="266086974#1" to="149122118#3"/>
    <trip id="73" depart="73.00" from="353940876#2" to="461222309#2"/>
    <trip id="74" depart="74.00" from="149122118#10" to="24059844"/>
    <trip id="75" depart="75.00" from="998621643#2" to="405795840"/>
    <trip id="76" depart="76.00" from="266086989#0" to="333682042#3"/>
    <trip id="77" depart="77.00" from="-333682049#12" to="149835636#0"/>
    <trip id="78" depart="78.00" from="24835448" to="354858502#1"/>
    <trip id="79" depart="79.00" from="149835645#10" to="149122118#9"/>
    <trip id="80" depart="80.00" from="-265010591" to="397862664#4"/>
    <trip id="81" depart="81.00" from="149835645#10" to="721120031#3"/>
    <trip id="82" depart="82.00" from="582338491#0" to="-265010591"/>
    <trip id="83" depart="83.00" from="149835645#4" to="405795840"/>
    <trip id="84" depart="84.00" from="149122118#6" to="-333682049#16"/>
    <trip id="85" depart="85.00" from="743545404#3" to="354858483#7"/>
    <trip id="86" depart="86.00" from="27241669#4" to="550281566"/>
    <trip id="87" depart="87.00" from="550281563" to="1015181077#4"/>
    <trip id="88" depart="88.00" from="-27241669#4" to="266086980"/>
    <trip id="89" depart="89.00" from="266086974#1" to="27241668#1"/>
    <trip id="90" depart="90.00" from="4853035#0" to="405795840"/>
    <trip id="91" depart="91.00" from="986165964" to="-27241669#4"/>
    <trip id="92" depart="92.00" from="265010620#1" to="257239011#1"/>
    <trip id="93" depart="93.00" from="582338491#0" to="149835645#8"/>
    <trip id="94" depart="94.00" from="1015181077#5" to="266086989#0"/>
    <trip id="95" depart="95.00" from="266086974#1" to="171300278#3"/>
    <trip id="96" depart="96.00" from="149835645#8" to="810346011#3"/>
    <trip id="97" depart="97.00" from="266086989#1" to="62066589#1"/>
    <trip id="98" depart="98.00" from="354858483#1" to="-149835645#5"/>
    <trip id="99" depart="99.00" from="998621643#2" to="59254382#2"/>
    <trip id="100" depart="100.00" from="849983642#1" to="810346011#3"/>
    <trip id="101" depart="101.00" from="582230759#0" to="-397862673#7"/>
    <trip id="102" depart="102.00" from="27241677#3" to="149122118#4"/>
    <trip id="103" depart="103.00" from="265010616#0" to="-149835645#8"/>
    <trip id="104" depart="104.00" from="265010588#4" to="987049868#0"/>
    <trip id="105" depart="105.00" from="171300278#2" to="550281566"/>
    <trip id="106" depart="106.00" from="27241668#1" to="266086980"/>
    <trip id="107" depart="107.00" from="820214408" to="998621643#2"/>
    <trip id="108" depart="108.00" from="354858483#7" to="45019024"/>
    <trip id="109" depart="109.00" from="-397862673#7" to="24059844"/>
    <trip id="110" depart="110.00" from="849983642#1" to="354858498#1"/>
    <trip id="111" depart="111.00" from="353940882#1" to="4848757"/>
    <trip id="112" depart="112.00" from="-149835645#8" to="354858502#1"/>
    <trip id="113" depart="113.00" from="333682042#2" to="62066585#1"/>
    <trip id="114" depart="114.00" from="-397862673#7" to="820360604#1"/>
    <trip id="115" depart="115.00" from="-27241668#1" to="1015181076#0"/>
    <trip id="116" depart="116.00" from="397862664#4" to="405795841"/>
    <trip id="117" depart="117.00" from="149835645#11" to="-333682049#1"/>
    <trip id="118" depart="118.00" from="59254388#4" to="149835645#7"/>
    <trip id="119" depart="119.00" from="397862664#4" to="397862664#4"/>
    <trip id="120" depart="120.00" from="266086971#2" to="354858498#1"/>
    <trip id="121" depart="121.00" from="333682049#15" to="810346011#3"/>
    <trip id="122" depart="122.00" from="149122118#10" to="45019024"/>
    <trip id="123" depart="123.00" from="149835645#5" to="266086965#1"/>
    <trip id="124" depart="124.00" from="45019022" to="24059844"/>
    <trip id="125" depart="125.00" from="24059844" to="4853035#3"/>
    <trip id="126" depart="126.00" from="-265010604" to="266086989#1"/>
    <trip id="127" depart="127.00" from="998621643#2" to="998621643#2"/>
    <trip id="128" depart="128.00" from="-265010604" to="149122118#4"/>
    <trip id="129" depart="129.00" from="171300278#2" to="810346011#3"/>
    <trip id="130" depart="130.00" from="59254382#3" to="682445838"/>
    <trip id="131" depart="131.00" from="265010581#0" to="-397862673#7"/>
    <trip id="132" depart="132.00" from="550281566" to="44837353#1"/>
    <trip id="133" depart="133.00" from="397862664#4" to="987049868#0"/>
    <trip id="134" depart="134.00" from="405795844#1-AddedOnRampEdge" to="-149122118#10"/>
    <trip id="135" depart="135.00" from="550281563" to="24059844"/>
    <trip id="136" depart="136.00" from="44837353#1" to="810346011#3"/>
    <trip id="137" depart="137.00" from="-333682053#1" to="-27242140#1"/>
    <trip id="138" depart="138.00" from="-27241677#4" to="353940876#2"/>
    <trip id="139" depart="139.00" from="171300278#3" to="397862664#4"/>
    <trip id="140" depart="140.00" from="4853035#0" to="149122118#10"/>
    <trip id="141" depart="141.00" from="405795841" to="171300268#3"/>
    <trip id="142" depart="142.00" from="27241686#0" to="721120031#3"/>
    <trip id="143" depart="143.00" from="582230759#0" to="-27241669#3"/>
    <trip id="144" depart="144.00" from="266086974#1" to="171300278#3"/>
    <trip id="145" depart="145.00" from="-1015181077#5" to="4853042"/>
    <trip id="146" depart="146.00" from="405795841" to="171300268#2"/>
    <trip id="147" depart="147.00" from="4853035#0" to="353940876#2"/>
    <trip id="148" depart="148.00" from="266086989#0" to="-149122118#10"/>
    <trip id="149" depart="149.00" from="-265010621#1" to="682445838"/>
    <trip id="150" depart="150.00" from="651636564" to="333682049#7"/>
    <trip id="151" depart="151.00" from="550281566" to="354858498#1"/>
    <trip id="152" depart="152.00" from="-397862673#7" to="-333682049#15"/>
    <trip id="153" depart="153.00" from="24059844" to="682459916#1"/>
    <trip id="154" depart="154.00" from="550281563" to="62066589#1"/>
    <trip id="155" depart="155.00" from="62066589#1" to="149122118#10"/>
    <trip id="156" depart="156.00" from="149835645#8" to="-27241671#1"/>
    <trip id="157" depart="157.00" from="4854085" to="682445838"/>
    <trip id="158" depart="158.00" from="265010621#1" to="397862664#4"/>
    <trip id="159" depart="159.00" from="-397862673#7" to="810346011#3"/>
    <trip id="160" depart="160.00" from="59254381#1" to="888066407"/>
    <trip id="161" depart="161.00" from="550281563" to="682445838"/>
    <trip id="162" depart="162.00" from="-149122118#5" to="4848757"/>
    <trip id="163" depart="163.00" from="24835448" to="810346011#3"/>
    <trip id="164" depart="164.00" from="550281563" to="651636564"/>
    <trip id="165" depart="165.00" from="550281563" to="171300277#1"/>
    <trip id="166" depart="166.00" from="4854085" to="-27241677#3"/>
    <trip id="167" depart="167.00" from="59254381#2" to="62066589#1"/>
    <trip id="168" depart="168.00" from="149835636#1" to="582338491#0"/>
    <trip id="169" depart="169.00" from="27241668#5" to="24059844"/>
    <trip id="170" depart="170.00" from="4854085" to="149835645#10"/>
    <trip id="171" depart="171.00" from="-149122118#5" to="1015181077#5"/>
    <trip id="172" depart="172.00" from="24835448" to="651636564"/>
    <trip id="173" depart="173.00" from="849983642#1" to="23350417#1"/>
    <trip id="174" depart="174.00" from="405795842#2" to="266086966"/>
    <trip id="175" depart="175.00" from="888066407" to="333682049#15"/>
    <trip id="176" depart="176.00" from="810346011#1" to="-27242140#1"/>
    <trip id="177" depart="177.00" from="888066407" to="-682459916#1"/>
    <trip id="178" depart="178.00" from="820214408" to="171300268#3"/>
    <trip id="179" depart="179.00" from="-27241677#5" to="266086980"/>
    <trip id="180" depart="180.00" from="4853035#0" to="24059844"/>
    <trip id="181" depart="181.00" from="397862664#4" to="285454834#1"/>
    <trip id="182" depart="182.00" from="265010598#1" to="354858498#1"/>
    <trip id="183" depart="183.00" from="157345939" to="44837353#1"/>
    <trip id="184" depart="184.00" from="-1015181077#3" to="810346011#3"/>
    <trip id="185" depart="185.00" from="353940876#1" to="45019024"/>
    <trip id="186" depart="186.00" from="4853035#3" to="405795840"/>
    <trip id="187" depart="187.00" from="257239019#2" to="-171300268#3"/>
    <trip id="188" depart="188.00" from="44837353#1" to="24835448"/>
    <trip id="189" depart="189.00" from="24059844" to="59254388#4"/>
    <trip id="190" depart="190.00" from="4853035#0" to="24059844"/>
    <trip id="191" depart="191.00" from="24059844" to="266086974#1"/>
    <trip id="192" depart="192.00" from="265010617#1" to="24059844"/>
    <trip id="193" depart="193.00" from="-333682049#15" to="266086980"/>
    <trip id="194" depart="194.00" from="810346011#1" to="405795841"/>
    <trip id="195" depart="195.00" from="651636564" to="397862664#4"/>
    <trip id="196" depart="196.00" from="24059844" to="333682052#1"/>
    <trip id="197" depart="197.00" from="-1015181077#1" to="23350417#5"/>
    <trip id="198" depart="198.00" from="266086989#0" to="354858498#1"/>
    <trip id="199" depart="199.00" from="405795844#1-AddedOnRampEdge" to="27241668#0"/>
</routes>
