<?xml version="1.0" encoding="UTF-8"?>

<!-- generated on 2022-12-27 14:05:00 by Eclipse SUMO netconvert Version 1.11.0
<configuration xmlns:xsi="http://www.w3.org/2001/XMLSchema-instance" xsi:noNamespaceSchemaLocation="http://sumo.dlr.de/xsd/netconvertConfiguration.xsd">

    <input>
        <type-files value="/home/narisu/src/omnet/sumo-src-1.11.0/data/typemap/osmNetconvert.typ.xml"/>
        <osm-files value="osm_bbox.osm.xml"/>
    </input>

    <output>
        <output-file value="osm.net.xml"/>
        <output.street-names value="true"/>
        <output.original-names value="true"/>
    </output>

    <projection>
        <proj.utm value="true"/>
    </projection>

    <processing>
        <geometry.remove value="true"/>
        <roundabouts.guess value="true"/>
    </processing>

    <tls_building>
        <tls.discard-simple value="true"/>
        <tls.join value="true"/>
        <tls.guess-signals value="true"/>
        <tls.default-type value="actuated"/>
    </tls_building>

    <ramp_guessing>
        <ramps.guess value="true"/>
    </ramp_guessing>

    <junctions>
        <junctions.join value="true"/>
        <junctions.corner-detail value="5"/>
    </junctions>

    <report>
        <verbose value="true"/>
        <aggregate-warnings value="5"/>
    </report>

</configuration>
-->

<net version="1.9" junctionCornerDetail="5" limitTurnSpeed="5.50" xmlns:xsi="http://www.w3.org/2001/XMLSchema-instance" xsi:noNamespaceSchemaLocation="http://sumo.dlr.de/xsd/net_file.xsd">

    <location netOffset="-382640.09,-3950055.79" convBoundary="0.00,0.00,4236.29,1222.13" origBoundary="139.702949,35.687569,139.749676,35.698595" projParameter="+proj=utm +zone=54 +ellps=WGS84 +datum=WGS84 +units=m +no_defs"/>

    <type id="highway.bridleway" priority="1" numLanes="1" speed="2.78" allow="pedestrian" oneway="1" width="2.00"/>
    <type id="highway.bus_guideway" priority="1" numLanes="1" speed="27.78" allow="bus" oneway="1"/>
    <type id="highway.cycleway" priority="1" numLanes="1" speed="8.33" allow="bicycle" oneway="0" width="1.00"/>
    <type id="highway.footway" priority="1" numLanes="1" speed="2.78" allow="pedestrian" oneway="1" width="2.00"/>
    <type id="highway.ford" priority="1" numLanes="1" speed="2.78" allow="army" oneway="0"/>
    <type id="highway.living_street" priority="2" numLanes="1" speed="2.78" disallow="tram rail_urban rail rail_electric rail_fast ship" oneway="0"/>
    <type id="highway.motorway" priority="14" numLanes="2" speed="39.44" allow="private emergency authority army vip passenger hov taxi bus coach delivery truck trailer motorcycle evehicle custom1 custom2" oneway="1"/>
    <type id="highway.motorway_link" priority="9" numLanes="1" speed="22.22" allow="private emergency authority army vip passenger hov taxi bus coach delivery truck trailer motorcycle evehicle custom1 custom2" oneway="1"/>
    <type id="highway.path" priority="1" numLanes="1" speed="2.78" allow="pedestrian bicycle" oneway="0" width="2.00"/>
    <type id="highway.pedestrian" priority="1" numLanes="1" speed="2.78" allow="pedestrian" oneway="1" width="2.00"/>
    <type id="highway.primary" priority="12" numLanes="2" speed="27.78" disallow="tram rail_urban rail rail_electric rail_fast ship" oneway="0"/>
    <type id="highway.primary_link" priority="7" numLanes="1" speed="22.22" disallow="tram rail_urban rail rail_electric rail_fast ship" oneway="0"/>
    <type id="highway.raceway" priority="15" numLanes="2" speed="83.33" allow="vip" oneway="0"/>
    <type id="highway.residential" priority="3" numLanes="1" speed="13.89" disallow="tram rail_urban rail rail_electric rail_fast ship" oneway="0"/>
    <type id="highway.secondary" priority="11" numLanes="1" speed="27.78" disallow="tram rail_urban rail rail_electric rail_fast ship" oneway="0"/>
    <type id="highway.secondary_link" priority="6" numLanes="1" speed="22.22" disallow="tram rail_urban rail rail_electric rail_fast ship" oneway="0"/>
    <type id="highway.service" priority="1" numLanes="1" speed="5.56" allow="pedestrian delivery bicycle" oneway="0"/>
    <type id="highway.stairs" priority="1" numLanes="1" speed="1.39" allow="pedestrian" oneway="1" width="2.00"/>
    <type id="highway.step" priority="1" numLanes="1" speed="1.39" allow="pedestrian" oneway="1" width="2.00"/>
    <type id="highway.steps" priority="1" numLanes="1" speed="1.39" allow="pedestrian" oneway="1" width="2.00"/>
    <type id="highway.tertiary" priority="10" numLanes="1" speed="22.22" disallow="tram rail_urban rail rail_electric rail_fast ship" oneway="0"/>
    <type id="highway.tertiary_link" priority="5" numLanes="1" speed="22.22" disallow="tram rail_urban rail rail_electric rail_fast ship" oneway="0"/>
    <type id="highway.track" priority="1" numLanes="1" speed="5.56" allow="pedestrian motorcycle moped bicycle" oneway="0"/>
    <type id="highway.trunk" priority="13" numLanes="2" speed="27.78" disallow="pedestrian bicycle tram rail_urban rail rail_electric rail_fast ship" oneway="0"/>
    <type id="highway.trunk_link" priority="8" numLanes="1" speed="22.22" disallow="pedestrian bicycle tram rail_urban rail rail_electric rail_fast ship" oneway="0"/>
    <type id="highway.unclassified" priority="4" numLanes="1" speed="13.89" disallow="tram rail_urban rail rail_electric rail_fast ship" oneway="0"/>
    <type id="highway.unsurfaced" priority="1" numLanes="1" speed="8.33" disallow="tram rail_urban rail rail_electric rail_fast ship" oneway="0"/>
    <type id="railway.highspeed" priority="21" numLanes="1" speed="69.44" allow="rail_fast" oneway="1"/>
    <type id="railway.light_rail" priority="19" numLanes="1" speed="27.78" allow="rail_urban" oneway="1"/>
    <type id="railway.preserved" priority="16" numLanes="1" speed="27.78" allow="rail" oneway="1"/>
    <type id="railway.rail" priority="20" numLanes="1" speed="44.44" allow="rail" oneway="1"/>
    <type id="railway.subway" priority="18" numLanes="1" speed="27.78" allow="rail_urban" oneway="1"/>
    <type id="railway.tram" priority="17" numLanes="1" speed="13.89" allow="tram" oneway="1"/>

    <edge id=":1625445458_0" function="internal">
        <lane id=":1625445458_0_0" index="0" disallow="tram rail_urban rail rail_electric rail_fast ship" speed="13.89" length="11.29" shape="463.73,446.37 460.22,435.64"/>
    </edge>
    <edge id=":1625445458_1" function="internal">
        <lane id=":1625445458_1_0" index="0" disallow="tram rail_urban rail rail_electric rail_fast ship" speed="7.27" length="4.08" shape="463.73,446.37 463.48,443.83 464.13,442.45"/>
    </edge>
    <edge id=":1625445458_2" function="internal">
        <lane id=":1625445458_2_0" index="0" disallow="tram rail_urban rail rail_electric rail_fast ship" speed="3.65" length="2.34" shape="463.73,446.37 464.12,444.98 464.75,444.35"/>
    </edge>
    <edge id=":1625445458_9" function="internal">
        <lane id=":1625445458_9_0" index="0" disallow="tram rail_urban rail rail_electric rail_fast ship" speed="7.27" length="7.70" shape="464.13,442.45 464.51,441.65 466.83,439.84 470.43,438.40"/>
    </edge>
    <edge id=":1625445458_10" function="internal">
        <lane id=":1625445458_10_0" index="0" disallow="tram rail_urban rail rail_electric rail_fast ship" speed="3.65" length="2.34" shape="464.75,444.35 465.64,444.48 466.77,445.37"/>
    </edge>
    <edge id=":1625445458_3" function="internal">
        <lane id=":1625445458_3_0" index="0" disallow="tram rail_urban rail rail_electric rail_fast ship" speed="6.62" length="9.17" shape="463.26,434.64 464.36,436.89 465.93,438.27 467.95,438.77 470.43,438.40"/>
    </edge>
    <edge id=":1625445458_4" function="internal">
        <lane id=":1625445458_4_0" index="0" disallow="tram rail_urban rail rail_electric rail_fast ship" speed="13.89" length="11.29" shape="463.26,434.64 466.77,445.37"/>
    </edge>
    <edge id=":1625445458_5" function="internal">
        <lane id=":1625445458_5_0" index="0" disallow="tram rail_urban rail rail_electric rail_fast ship" speed="3.65" length="2.34" shape="463.26,434.64 462.87,436.03 462.23,436.66"/>
    </edge>
    <edge id=":1625445458_11" function="internal">
        <lane id=":1625445458_11_0" index="0" disallow="tram rail_urban rail rail_electric rail_fast ship" speed="3.65" length="2.34" shape="462.23,436.66 461.35,436.53 460.22,435.64"/>
    </edge>
    <edge id=":1625445458_6" function="internal">
        <lane id=":1625445458_6_0" index="0" disallow="tram rail_urban rail rail_electric rail_fast ship" speed="6.51" length="9.03" shape="456.64,442.70 458.86,441.61 460.19,440.07 460.65,438.08 460.22,435.64"/>
    </edge>
    <edge id=":1625445458_7" function="internal">
        <lane id=":1625445458_7_0" index="0" disallow="tram rail_urban rail rail_electric rail_fast ship" speed="13.89" length="14.44" shape="456.64,442.70 470.43,438.40"/>
    </edge>
    <edge id=":1625445458_8" function="internal">
        <lane id=":1625445458_8_0" index="0" disallow="tram rail_urban rail rail_electric rail_fast ship" speed="7.35" length="11.79" shape="456.64,442.70 460.41,441.84 463.35,442.00 465.47,443.18 466.77,445.37"/>
    </edge>
    <edge id=":1664033590_0" function="internal">
        <lane id=":1664033590_0_0" index="0" disallow="tram rail_urban rail rail_electric rail_fast ship" speed="6.40" length="9.04" shape="789.26,337.01 788.58,334.61 787.29,333.05 785.40,332.33 782.91,332.43"/>
    </edge>
    <edge id=":1664033590_1" function="internal">
        <lane id=":1664033590_1_0" index="0" disallow="tram rail_urban rail rail_electric rail_fast ship" speed="8.17" length="14.27" shape="789.26,337.01 789.26,333.06 790.46,330.01 792.87,327.87 796.48,326.62"/>
    </edge>
    <edge id=":1664033590_2" function="internal">
        <lane id=":1664033590_2_0" index="0" disallow="tram rail_urban rail rail_electric rail_fast ship" speed="3.65" length="4.67" shape="789.26,337.01 789.89,335.72 790.63,335.21 791.48,335.50 792.43,336.58"/>
    </edge>
    <edge id=":1664033590_3" function="internal">
        <lane id=":1664033590_3_0" index="0" disallow="tram rail_urban rail rail_electric rail_fast ship" speed="6.71" length="9.29" shape="797.07,329.77 794.74,330.58 793.20,331.98 792.43,333.98 792.43,336.58"/>
    </edge>
    <edge id=":1664033590_4" function="internal">
        <lane id=":1664033590_4_0" index="0" disallow="tram rail_urban rail rail_electric rail_fast ship" speed="13.89" length="14.41" shape="797.07,329.77 782.91,332.43"/>
    </edge>
    <edge id=":1664033590_5" function="internal">
        <lane id=":1664033590_5_0" index="0" disallow="tram rail_urban rail rail_electric rail_fast ship" speed="3.65" length="2.34" shape="797.07,329.77 795.74,329.20 795.20,328.49"/>
    </edge>
    <edge id=":1664033590_9" function="internal">
        <lane id=":1664033590_9_0" index="0" disallow="tram rail_urban rail rail_electric rail_fast ship" speed="3.65" length="2.34" shape="795.20,328.49 795.44,327.63 796.48,326.62"/>
    </edge>
    <edge id=":1664033590_6" function="internal">
        <lane id=":1664033590_6_0" index="0" disallow="tram rail_urban rail rail_electric rail_fast ship" speed="13.89" length="14.41" shape="782.32,329.29 796.48,326.62"/>
    </edge>
    <edge id=":1664033590_7" function="internal">
        <lane id=":1664033590_7_0" index="0" disallow="tram rail_urban rail rail_electric rail_fast ship" speed="7.91" length="5.94" shape="782.32,329.29 786.28,329.12 788.12,329.82"/>
    </edge>
    <edge id=":1664033590_8" function="internal">
        <lane id=":1664033590_8_0" index="0" disallow="tram rail_urban rail rail_electric rail_fast ship" speed="3.65" length="2.34" shape="782.32,329.29 783.64,329.85 784.18,330.57"/>
    </edge>
    <edge id=":1664033590_10" function="internal">
        <lane id=":1664033590_10_0" index="0" disallow="tram rail_urban rail rail_electric rail_fast ship" speed="7.91" length="8.45" shape="788.12,329.82 789.29,330.27 791.34,332.76 792.43,336.58"/>
    </edge>
    <edge id=":1664033590_11" function="internal">
        <lane id=":1664033590_11_0" index="0" disallow="tram rail_urban rail rail_electric rail_fast ship" speed="3.65" length="2.34" shape="784.18,330.57 783.94,331.43 782.91,332.43"/>
    </edge>
    <edge id=":1664033592_0" function="internal">
        <lane id=":1664033592_0_0" index="0" disallow="tram rail_urban rail rail_electric rail_fast ship" speed="8.33" length="9.40" shape="1080.81,346.00 1078.55,344.54 1077.35,343.07 1076.59,341.21 1075.65,338.57"/>
    </edge>
    <edge id=":1664033592_1" function="internal">
        <lane id=":1664033592_1_0" index="0" disallow="tram rail_urban rail rail_electric rail_fast ship" speed="8.33" length="7.11" shape="1078.63,337.40 1079.30,339.42 1079.80,340.88 1080.62,342.04 1082.30,343.17"/>
    </edge>
    <edge id=":1664033601_0" function="internal">
        <lane id=":1664033601_0_0" index="0" disallow="tram rail_urban rail rail_electric rail_fast ship" speed="6.45" length="9.03" shape="440.05,374.05 438.95,371.82 437.40,370.50 435.41,370.09 432.98,370.58"/>
    </edge>
    <edge id=":1664033601_1" function="internal">
        <lane id=":1664033601_1_0" index="0" disallow="tram rail_urban rail rail_electric rail_fast ship" speed="8.10" length="14.22" shape="440.05,374.05 439.36,370.19 440.02,367.02 442.05,364.53 445.45,362.72"/>
    </edge>
    <edge id=":1664033601_2" function="internal">
        <lane id=":1664033601_2_0" index="0" disallow="tram rail_urban rail rail_electric rail_fast ship" speed="3.65" length="4.67" shape="440.05,374.05 440.44,372.66 441.07,372.03 441.96,372.16 443.09,373.06"/>
    </edge>
    <edge id=":1664033601_3" function="internal">
        <lane id=":1664033601_3_0" index="0" disallow="tram rail_urban rail rail_electric rail_fast ship" speed="6.62" length="9.17" shape="446.53,365.73 444.36,366.89 443.06,368.50 442.64,370.55 443.09,373.06"/>
    </edge>
    <edge id=":1664033601_4" function="internal">
        <lane id=":1664033601_4_0" index="0" disallow="tram rail_urban rail rail_electric rail_fast ship" speed="13.89" length="14.40" shape="446.53,365.73 432.98,370.58"/>
    </edge>
    <edge id=":1664033601_5" function="internal">
        <lane id=":1664033601_5_0" index="0" disallow="tram rail_urban rail rail_electric rail_fast ship" speed="3.65" length="2.34" shape="446.53,365.73 445.13,365.38 444.48,364.76"/>
    </edge>
    <edge id=":1664033601_9" function="internal">
        <lane id=":1664033601_9_0" index="0" disallow="tram rail_urban rail rail_electric rail_fast ship" speed="3.65" length="2.34" shape="444.48,364.76 444.59,363.88 445.45,362.72"/>
    </edge>
    <edge id=":1664033601_6" function="internal">
        <lane id=":1664033601_6_0" index="0" disallow="tram rail_urban rail rail_electric rail_fast ship" speed="13.89" length="14.39" shape="431.90,367.57 445.45,362.72"/>
    </edge>
    <edge id=":1664033601_7" function="internal">
        <lane id=":1664033601_7_0" index="0" disallow="tram rail_urban rail rail_electric rail_fast ship" speed="7.95" length="5.92" shape="431.90,367.57 435.76,366.79 437.70,367.19"/>
    </edge>
    <edge id=":1664033601_8" function="internal">
        <lane id=":1664033601_8_0" index="0" disallow="tram rail_urban rail rail_electric rail_fast ship" speed="3.65" length="2.34" shape="431.90,367.57 433.30,367.92 433.95,368.54"/>
    </edge>
    <edge id=":1664033601_10" function="internal">
        <lane id=":1664033601_10_0" index="0" disallow="tram rail_urban rail rail_electric rail_fast ship" speed="7.95" length="8.37" shape="437.70,367.19 438.90,367.44 441.35,369.53 443.09,373.06"/>
    </edge>
    <edge id=":1664033601_11" function="internal">
        <lane id=":1664033601_11_0" index="0" disallow="tram rail_urban rail rail_electric rail_fast ship" speed="3.65" length="2.34" shape="433.95,368.54 433.84,369.43 432.98,370.58"/>
    </edge>
    <edge id=":1664033747_0" function="internal">
        <lane id=":1664033747_0_0" index="0" disallow="tram rail_urban rail rail_electric rail_fast ship" speed="7.99" length="14.22" shape="1102.07,458.07 1103.08,461.84 1102.63,465.02 1100.74,467.61 1097.39,469.61"/>
    </edge>
    <edge id=":1664033747_1" function="internal">
        <lane id=":1664033747_1_0" index="0" disallow="tram rail_urban rail rail_electric rail_fast ship" speed="6.49" length="9.03" shape="1096.15,466.66 1098.28,465.39 1099.48,463.74 1099.76,461.73 1099.12,459.33"/>
    </edge>
    <edge id=":1664033806_0" function="internal">
        <lane id=":1664033806_0_0" index="0" disallow="tram rail_urban rail rail_electric rail_fast ship" speed="6.48" length="9.03" shape="588.24,549.12 585.77,549.34 583.97,550.29 582.84,551.99 582.39,554.43"/>
    </edge>
    <edge id=":1664033806_1" function="internal">
        <lane id=":1664033806_1_0" index="0" disallow="tram rail_urban rail rail_electric rail_fast ship" speed="3.65" length="2.55" shape="588.24,549.12 587.08,548.26 586.73,547.44 586.84,547.25"/>
    </edge>
    <edge id=":1664033806_4" function="internal">
        <lane id=":1664033806_4_0" index="0" disallow="tram rail_urban rail rail_electric rail_fast ship" speed="3.65" length="2.12" shape="586.84,547.25 587.17,546.66 588.41,545.93"/>
    </edge>
    <edge id=":1664033806_2" function="internal">
        <lane id=":1664033806_2_0" index="0" disallow="tram rail_urban rail rail_electric rail_fast ship" speed="6.57" length="9.11" shape="582.96,540.05 583.22,542.50 584.22,544.30 585.95,545.44 588.41,545.93"/>
    </edge>
    <edge id=":1664033806_3" function="internal">
        <lane id=":1664033806_3_0" index="0" disallow="tram rail_urban rail rail_electric rail_fast ship" speed="13.89" length="14.39" shape="582.96,540.05 582.39,554.43"/>
    </edge>
    <edge id=":1664033820_0" function="internal">
        <lane id=":1664033820_0_0" index="0" disallow="tram rail_urban rail rail_electric rail_fast ship" speed="13.89" length="14.60" shape="626.84,550.93 612.24,550.44"/>
    </edge>
    <edge id=":1664033820_1" function="internal">
        <lane id=":1664033820_1_0" index="0" disallow="tram rail_urban rail rail_electric rail_fast ship" speed="7.93" length="6.17" shape="626.84,550.93 622.93,550.32 621.05,549.13"/>
    </edge>
    <edge id=":1664033820_2" function="internal">
        <lane id=":1664033820_2_0" index="0" disallow="tram rail_urban rail rail_electric rail_fast ship" speed="3.65" length="2.34" shape="626.84,550.93 625.65,550.11 625.26,549.31"/>
    </edge>
    <edge id=":1664033820_9" function="internal">
        <lane id=":1664033820_9_0" index="0" disallow="tram rail_urban rail rail_electric rail_fast ship" speed="7.93" length="8.17" shape="621.05,549.13 620.21,548.60 618.67,545.77 618.31,541.84"/>
    </edge>
    <edge id=":1664033820_10" function="internal">
        <lane id=":1664033820_10_0" index="0" disallow="tram rail_urban rail rail_electric rail_fast ship" speed="3.65" length="2.34" shape="625.26,549.31 625.66,548.51 626.87,547.73"/>
    </edge>
    <edge id=":1664033820_3" function="internal">
        <lane id=":1664033820_3_0" index="0" disallow="tram rail_urban rail rail_electric rail_fast ship" speed="6.42" length="9.04" shape="621.50,542.00 621.73,544.48 622.70,546.26 624.42,547.34 626.87,547.73"/>
    </edge>
    <edge id=":1664033820_4" function="internal">
        <lane id=":1664033820_4_0" index="0" disallow="tram rail_urban rail rail_electric rail_fast ship" speed="8.02" length="14.30" shape="621.50,542.00 620.75,545.87 618.96,548.57 616.12,550.09 612.24,550.44"/>
    </edge>
    <edge id=":1664033820_5" function="internal">
        <lane id=":1664033820_5_0" index="0" disallow="tram rail_urban rail rail_electric rail_fast ship" speed="3.65" length="4.67" shape="621.50,542.00 620.64,543.16 619.82,543.52 619.04,543.08 618.31,541.84"/>
    </edge>
    <edge id=":1664033820_6" function="internal">
        <lane id=":1664033820_6_0" index="0" disallow="tram rail_urban rail rail_electric rail_fast ship" speed="6.53" length="9.13" shape="612.42,547.24 614.88,547.02 616.69,546.05 617.83,544.32 618.31,541.84"/>
    </edge>
    <edge id=":1664033820_7" function="internal">
        <lane id=":1664033820_7_0" index="0" disallow="tram rail_urban rail rail_electric rail_fast ship" speed="13.89" length="14.47" shape="612.42,547.24 626.87,547.73"/>
    </edge>
    <edge id=":1664033820_8" function="internal">
        <lane id=":1664033820_8_0" index="0" disallow="tram rail_urban rail rail_electric rail_fast ship" speed="3.65" length="2.34" shape="612.42,547.24 613.57,548.11 613.93,548.93"/>
    </edge>
    <edge id=":1664033820_11" function="internal">
        <lane id=":1664033820_11_0" index="0" disallow="tram rail_urban rail rail_electric rail_fast ship" speed="3.65" length="2.34" shape="613.93,548.93 613.48,549.71 612.24,550.44"/>
    </edge>
    <edge id=":1664033823_0" function="internal">
        <lane id=":1664033823_0_0" index="0" disallow="tram rail_urban rail rail_electric rail_fast ship" speed="6.65" length="9.23" shape="661.25,556.90 660.84,554.46 659.72,552.72 657.88,551.66 655.34,551.28"/>
    </edge>
    <edge id=":1664033823_1" function="internal">
        <lane id=":1664033823_1_0" index="0" disallow="tram rail_urban rail rail_electric rail_fast ship" speed="13.89" length="14.42" shape="661.25,556.90 660.88,542.48"/>
    </edge>
    <edge id=":1664033823_2" function="internal">
        <lane id=":1664033823_2_0" index="0" disallow="tram rail_urban rail rail_electric rail_fast ship" speed="3.65" length="2.34" shape="661.25,556.90 662.03,555.68 662.82,555.26"/>
    </edge>
    <edge id=":1664033823_9" function="internal">
        <lane id=":1664033823_9_0" index="0" disallow="tram rail_urban rail rail_electric rail_fast ship" speed="3.65" length="2.34" shape="662.82,555.26 663.63,555.65 664.45,556.83"/>
    </edge>
    <edge id=":1664033823_3" function="internal">
        <lane id=":1664033823_3_0" index="0" disallow="tram rail_urban rail rail_electric rail_fast ship" speed="13.89" length="14.45" shape="664.08,542.38 664.45,556.83"/>
    </edge>
    <edge id=":1664033823_4" function="internal">
        <lane id=":1664033823_4_0" index="0" disallow="tram rail_urban rail rail_electric rail_fast ship" speed="7.93" length="5.99" shape="664.08,542.38 663.63,546.32 662.62,548.08"/>
    </edge>
    <edge id=":1664033823_5" function="internal">
        <lane id=":1664033823_5_0" index="0" disallow="tram rail_urban rail rail_electric rail_fast ship" speed="3.65" length="2.34" shape="664.08,542.38 663.31,543.61 662.53,544.03"/>
    </edge>
    <edge id=":1664033823_10" function="internal">
        <lane id=":1664033823_10_0" index="0" disallow="tram rail_urban rail rail_electric rail_fast ship" speed="7.93" length="8.37" shape="662.62,548.08 662.03,549.11 659.27,550.76 655.34,551.28"/>
    </edge>
    <edge id=":1664033823_11" function="internal">
        <lane id=":1664033823_11_0" index="0" disallow="tram rail_urban rail rail_electric rail_fast ship" speed="3.65" length="2.34" shape="662.53,544.03 661.72,543.66 660.88,542.48"/>
    </edge>
    <edge id=":1664033823_6" function="internal">
        <lane id=":1664033823_6_0" index="0" disallow="tram rail_urban rail rail_electric rail_fast ship" speed="6.42" length="9.04" shape="655.38,548.08 657.85,547.75 659.59,546.71 660.60,544.96 660.88,542.48"/>
    </edge>
    <edge id=":1664033823_7" function="internal">
        <lane id=":1664033823_7_0" index="0" disallow="tram rail_urban rail rail_electric rail_fast ship" speed="8.12" length="14.27" shape="655.38,548.08 659.28,548.67 662.09,550.32 663.82,553.04 664.45,556.83"/>
    </edge>
    <edge id=":1664033823_8" function="internal">
        <lane id=":1664033823_8_0" index="0" disallow="tram rail_urban rail rail_electric rail_fast ship" speed="3.65" length="4.67" shape="655.38,548.08 656.57,548.89 656.96,549.70 656.55,550.49 655.34,551.28"/>
    </edge>
    <edge id=":1664033854_0" function="internal">
        <lane id=":1664033854_0_0" index="0" disallow="tram rail_urban rail rail_electric rail_fast ship" speed="6.67" length="9.30" shape="617.49,676.59 616.65,674.27 615.22,672.75 613.20,672.03 610.60,672.11"/>
    </edge>
    <edge id=":1664033854_1" function="internal">
        <lane id=":1664033854_1_0" index="0" disallow="tram rail_urban rail rail_electric rail_fast ship" speed="13.89" length="14.46" shape="617.49,676.59 614.40,662.46"/>
    </edge>
    <edge id=":1664033854_2" function="internal">
        <lane id=":1664033854_2_0" index="0" disallow="tram rail_urban rail rail_electric rail_fast ship" speed="3.65" length="2.34" shape="617.49,676.59 618.04,675.25 618.74,674.70"/>
    </edge>
    <edge id=":1664033854_9" function="internal">
        <lane id=":1664033854_9_0" index="0" disallow="tram rail_urban rail rail_electric rail_fast ship" speed="3.65" length="2.34" shape="618.74,674.70 619.61,674.94 620.63,675.95"/>
    </edge>
    <edge id=":1664033854_3" function="internal">
        <lane id=":1664033854_3_0" index="0" disallow="tram rail_urban rail rail_electric rail_fast ship" speed="13.89" length="14.56" shape="617.51,661.73 620.63,675.95"/>
    </edge>
    <edge id=":1664033854_4" function="internal">
        <lane id=":1664033854_4_0" index="0" disallow="tram rail_urban rail rail_electric rail_fast ship" speed="7.89" length="6.12" shape="617.51,661.73 617.87,665.71 617.19,667.72"/>
    </edge>
    <edge id=":1664033854_5" function="internal">
        <lane id=":1664033854_5_0" index="0" disallow="tram rail_urban rail rail_electric rail_fast ship" speed="3.65" length="2.34" shape="617.51,661.73 617.01,663.08 616.32,663.65"/>
    </edge>
    <edge id=":1664033854_10" function="internal">
        <lane id=":1664033854_10_0" index="0" disallow="tram rail_urban rail rail_electric rail_fast ship" speed="7.89" length="8.33" shape="617.19,667.72 616.83,668.77 614.41,670.90 610.60,672.11"/>
    </edge>
    <edge id=":1664033854_11" function="internal">
        <lane id=":1664033854_11_0" index="0" disallow="tram rail_urban rail rail_electric rail_fast ship" speed="3.65" length="2.34" shape="616.32,663.65 615.45,663.45 614.40,662.46"/>
    </edge>
    <edge id=":1664033854_6" function="internal">
        <lane id=":1664033854_6_0" index="0" disallow="tram rail_urban rail rail_electric rail_fast ship" speed="6.37" length="9.04" shape="610.07,668.96 612.46,668.20 613.97,666.86 614.62,664.95 614.40,662.46"/>
    </edge>
    <edge id=":1664033854_7" function="internal">
        <lane id=":1664033854_7_0" index="0" disallow="tram rail_urban rail rail_electric rail_fast ship" speed="8.14" length="14.33" shape="610.07,668.96 614.05,668.84 617.14,669.97 619.33,672.34 620.63,675.95"/>
    </edge>
    <edge id=":1664033854_8" function="internal">
        <lane id=":1664033854_8_0" index="0" disallow="tram rail_urban rail rail_electric rail_fast ship" speed="3.65" length="4.67" shape="610.07,668.96 611.39,669.55 611.91,670.27 611.65,671.13 610.60,672.11"/>
    </edge>
    <edge id=":1665929618_0" function="internal">
        <lane id=":1665929618_0_0" index="0" disallow="tram rail_urban rail rail_electric rail_fast ship" speed="13.89" length="5.17" shape="1128.62,262.90 1128.02,264.18 1127.66,265.07 1127.41,266.01 1127.13,267.39"/>
        <lane id=":1665929618_0_1" index="1" disallow="tram rail_urban rail rail_electric rail_fast ship" speed="13.89" length="5.17" shape="1125.74,261.51 1125.03,263.00 1124.61,264.06 1124.32,265.16 1123.99,266.78"/>
    </edge>
    <edge id=":1665929711_0" function="internal">
        <lane id=":1665929711_0_0" index="0" disallow="tram rail_urban rail rail_electric rail_fast ship" speed="6.54" length="8.94" shape="1312.20,566.15 1309.92,565.27 1307.89,565.32 1306.11,566.29 1304.58,568.18"/>
    </edge>
    <edge id=":1665929711_1" function="internal">
        <lane id=":1665929711_1_0" index="0" disallow="tram rail_urban rail rail_electric rail_fast ship" speed="8.00" length="14.01" shape="1312.20,566.15 1309.15,563.83 1307.55,561.09 1307.41,557.92 1308.72,554.32"/>
    </edge>
    <edge id=":1665929711_2" function="internal">
        <lane id=":1665929711_2_0" index="0" disallow="tram rail_urban rail rail_electric rail_fast ship" speed="3.65" length="4.67" shape="1312.20,566.15 1311.54,564.86 1311.58,563.97 1312.32,563.47 1313.76,563.35"/>
    </edge>
    <edge id=":1665929711_3" function="internal">
        <lane id=":1665929711_3_0" index="0" disallow="tram rail_urban rail rail_electric rail_fast ship" speed="6.51" length="8.92" shape="1311.54,555.82 1310.71,558.11 1310.80,560.13 1311.82,561.88 1313.76,563.35"/>
    </edge>
    <edge id=":1665929711_4" function="internal">
        <lane id=":1665929711_4_0" index="0" disallow="tram rail_urban rail rail_electric rail_fast ship" speed="13.89" length="14.18" shape="1311.54,555.82 1304.58,568.18"/>
    </edge>
    <edge id=":1665929711_5" function="internal">
        <lane id=":1665929711_5_0" index="0" disallow="tram rail_urban rail rail_electric rail_fast ship" speed="3.65" length="2.34" shape="1311.54,555.82 1310.27,556.51 1309.37,556.48"/>
    </edge>
    <edge id=":1665929711_9" function="internal">
        <lane id=":1665929711_9_0" index="0" disallow="tram rail_urban rail rail_electric rail_fast ship" speed="3.65" length="2.34" shape="1309.37,556.48 1308.86,555.75 1308.72,554.32"/>
    </edge>
    <edge id=":1665929711_6" function="internal">
        <lane id=":1665929711_6_0" index="0" disallow="tram rail_urban rail rail_electric rail_fast ship" speed="13.89" length="14.04" shape="1301.83,566.55 1308.72,554.32"/>
    </edge>
    <edge id=":1665929711_7" function="internal">
        <lane id=":1665929711_7_0" index="0" disallow="tram rail_urban rail rail_electric rail_fast ship" speed="8.03" length="5.65" shape="1301.83,566.55 1304.22,563.58 1305.84,562.69"/>
    </edge>
    <edge id=":1665929711_8" function="internal">
        <lane id=":1665929711_8_0" index="0" disallow="tram rail_urban rail rail_electric rail_fast ship" speed="3.65" length="2.34" shape="1301.83,566.55 1303.13,565.93 1304.02,565.99"/>
    </edge>