<?xml version="1.0" encoding="UTF-8"?>

<!-- generated on 2022-12-26 16:33:13 by Eclipse SUMO sumo Version 1.11.0
-->

<configuration xmlns:xsi="http://www.w3.org/2001/XMLSchema-instance" xsi:noNamespaceSchemaLocation="http://sumo.dlr.de/xsd/sumoConfiguration.xsd">

    <input>
        <net-file value="osm.net.xml"/>
    </input>

</configuration>
