<?xml version="1.0" encoding="UTF-8"?>

<!-- generated on 2022-01-28 10:42:12 by Eclipse SUMO polyconvert Version 1.9.2
<configuration xmlns:xsi="http://www.w3.org/2001/XMLSchema-instance" xsi:noNamespaceSchemaLocation="http://sumo.dlr.de/xsd/polyconvertConfiguration.xsd">

    <input>
        <net-file value="osm.net.xml"/>
        <osm-files value="osm_bbox.osm.xml"/>
        <osm.keep-full-type value="true"/>
        <type-file value="C:\Users\OTSLCPS004\source\data\typemap\osmPolyconvert.typ.xml"/>
    </input>

    <output>
        <output-file value="osm.poly.xml"/>
    </output>

    <processing>
        <poi-layer-offset value="5"/>
    </processing>

    <report>
        <verbose value="true"/>
    </report>

</configuration>
-->

<additional xmlns:xsi="http://www.w3.org/2001/XMLSchema-instance" xsi:noNamespaceSchemaLocation="http://sumo.dlr.de/xsd/additional_file.xsd">
    <location netOffset="-387444.10,-3940942.82" convBoundary="0.00,-6824.90,4620.04,11853.04" origBoundary="139.757219,35.511387,139.837700,35.713152" projParameter="+proj=utm +zone=54 +ellps=WGS84 +datum=WGS84 +units=m +no_defs"/>

    <poly id="1008754996" type="aeroway.helipad" color="grey" fill="1" layer="-2.00" shape="2707.722841,2529.462255 2703.150960,2536.951144 2693.971258,2531.395732 2698.542998,2523.895746 2707.722841,2529.462255"/>
    <poly id="1008755601" type="aeroway.helipad" color="grey" fill="1" layer="-2.00" shape="2149.088459,2655.158002 2150.966373,2665.640070 2140.447567,2667.512146 2138.560723,2657.041284 2149.088459,2655.158002"/>
    <poly id="1008755602" type="aeroway.helipad" color="grey" fill="1" layer="-2.00" shape="2109.234690,2627.075904 2110.802986,2637.417592 2100.705352,2638.929504 2099.146238,2628.598796 2109.234690,2627.075904"/>
    <poly id="1008755603" type="aeroway.helipad" color="grey" fill="1" layer="-2.00" shape="1972.463017,2539.117309 1966.449833,2548.643480 1957.878851,2543.280929 1963.901086,2533.754641 1972.463017,2539.117309"/>
    <poly id="1008755604" type="aeroway.helipad" color="grey" fill="1" layer="-2.00" shape="1905.566785,2503.218370 1901.001985,2510.496835 1892.796454,2505.396042 1897.352333,2498.128778 1905.566785,2503.218370"/>
    <poly id="1008755605" type="aeroway.helipad" color="grey" fill="1" layer="-2.00" shape="2044.119155,2803.146886 2046.481333,2813.234661 2035.581333,2815.755011 2033.219281,2805.678329 2044.119155,2803.146886"/>
    <poly id="1008755609" type="aeroway.helipad" color="grey" fill="1" layer="-2.00" shape="1756.401087,2406.520141 1749.820927,2415.598689 1741.148362,2409.372324 1747.737574,2400.293657 1756.401087,2406.520141"/>
    <poly id="1008755610" type="aeroway.helipad" color="grey" fill="1" layer="-2.00" shape="1541.905837,2267.895894 1531.112459,2284.825731 1513.849224,2273.903274 1524.651779,2256.984395 1541.905837,2267.895894"/>
    <poly id="1008755611" type="aeroway.helipad" color="grey" fill="1" layer="-2.00" shape="1327.091196,2084.663232 1326.951479,2095.957981 1316.814851,2095.840530 1316.954555,2084.545781 1327.091196,2084.663232"/>
    <poly id="1008755761" type="aeroway.helipad" color="grey" fill="1" layer="-2.00" shape="1640.868314,1353.195670 1635.681553,1361.480384 1627.593677,1356.467082 1632.771240,1348.171385 1640.868314,1353.195670"/>
    <poly id="1008755762" type="aeroway.helipad" color="grey" fill="1" layer="-2.00" shape="1725.530727,1156.334265 1719.421032,1166.172371 1710.000796,1160.376850 1716.101428,1150.538851 1725.530727,1156.334265"/>
    <poly id="130970732" type="natural.coastline" color="140,196,107" fill="1" layer="-4.00" shape="1205.259505,2917.509221 1201.032851,2925.693503 1194.723765,2929.577428 1191.910296,2931.997687 1190.397431,2934.135438 1185.795879,2937.687399 1182.435578,2938.383939 1174.804480,2936.493689 1168.759303,2933.962377 1164.878563,2931.426177 1161.461782,2927.608440 1158.257881,2920.537689 1156.907285,2917.548290 1153.402616,2913.221361 1110.231193,2847.456681 1008.574149,2689.384759 1007.240168,2687.005307 1006.818068,2682.229361 1007.377763,2679.914933 1008.313731,2677.995152 1035.709957,2660.601519 1039.955002,2659.671980 1043.806751,2659.157823 1050.384306,2662.237057 1104.160929,2743.077707 1108.544293,2748.136875 1114.108787,2752.049741 1117.866730,2754.898072 1120.122748,2757.865041 1121.752605,2762.903209 1123.293475,2770.238813 1127.732924,2779.057933 1129.890641,2780.683839 1135.939542,2783.503508 1137.530734,2786.900348 1140.309167,2792.534280 1143.796194,2796.894706 1148.597957,2799.929669 1153.386082,2802.598724 1156.327843,2806.810670 1157.466917,2816.780429 1159.517338,2824.309344 1166.615825,2834.293296 1177.141802,2843.158323 1189.044596,2851.318354 1198.999038,2855.764311 1214.866721,2860.879586 1222.338756,2850.768864 1224.757692,2851.559526 1202.981440,2885.256080 1206.337222,2901.576794 1206.784400,2911.987852 1205.259505,2917.509221"/>
    <poly id="130970967" type="natural.coastline" color="140,196,107" fill="0" layer="-4.00" shape="1440.123533,2521.383086 1413.689907,2561.571296 1406.634527,2557.210934 1411.248060,2550.242205 1415.933796,2553.411880 1437.943136,2519.391308 1396.779544,2496.176427 1367.855264,2477.601218 1351.911118,2470.034980 1297.530808,2474.197543 1296.953136,2460.582148 1289.369690,2444.414072 1280.515569,2431.656440 1262.975433,2412.351367 1237.341054,2390.374169 1163.599970,2345.591713 1135.319570,2322.094826 1080.714128,2283.740727 1075.090112,2280.161418"/>
    <poly id="130971295" type="natural.coastline" color="140,196,107" fill="0" layer="-4.00" shape="1971.848187,3475.433671 1968.896102,3464.510144 1972.588697,3449.022373 1981.604976,3441.455667 1991.884873,3440.839879 2119.509075,3243.647374 2131.782383,3224.115126 2136.675145,3217.010191 2144.332504,3205.722075 2149.771667,3196.669043 2188.255895,3137.131126 2225.493736,3080.016091 2267.366243,3020.492043 2297.718469,2971.849182 2326.712251,2925.375358 2374.285074,2849.207934 2399.414638,2810.225798 2413.081494,2788.302792 2457.555059,2716.988705"/>
    <poly id="130971497" type="natural.coastline" color="140,196,107" fill="0" layer="-4.00" shape="1203.312725,1441.954035 1216.697201,1422.850442 1222.232685,1414.960468 1227.062034,1417.972962 1231.097216,1420.496183 1287.160305,1456.991625 1350.400632,1498.145739 1355.302067,1501.135213 1400.091316,1529.263507 1424.226354,1544.892365 1428.368792,1548.035559 1459.211135,1567.663172 1463.984182,1570.532278 1479.865306,1580.917247"/>
    <poly id="130971826" type="natural.coastline" color="140,196,107" fill="0" layer="-4.00" shape="1619.682862,3194.994036 1632.751596,3187.775842 1657.682848,3171.013847 1677.327347,3153.685446 1699.993373,3128.088221 1758.904837,3042.979077 1792.169197,2983.315764 1821.892510,2921.433599 1837.305399,2871.810112 1839.629616,2847.509039 1837.640467,2825.923997 1831.324196,2813.234136 1819.916511,2804.057618 1800.234301,2791.500734 1769.325071,2782.844208 1751.058335,2773.420320 1720.974110,2748.834780 1676.093135,2722.958168 1583.626205,2648.253944 1561.064048,2635.034579 1554.058368,2633.923828 1548.029700,2632.723250 1547.618988,2646.273319 1537.049911,2660.815314 1530.053904,2654.668093 1539.454211,2639.364128 1540.332344,2604.464676"/>
    <poly id="130972723" type="natural.coastline" color="140,196,107" fill="0" layer="-4.00" shape="1540.332344,2604.464676 1541.561277,2587.532036 1507.876702,2565.565716 1505.045999,2563.715152 1503.840721,2562.931464 1440.123533,2521.383086"/>
    <poly id="130972760" type="landuse.industrial" color="209,209,204" fill="0" layer="-3.00" shape="2999.730692,688.169786 2453.174070,1527.400182"/>
    <poly id="130972760#1" type="natural.coastline" color="140,196,107" fill="0" layer="-4.00" shape="2999.730692,688.169786 2453.174070,1527.400182"/>
    <poly id="130972848" type="natural.coastline" color="140,196,107" fill="0" layer="-4.00" shape="2619.127353,2145.630213 2558.473890,2106.254783 3065.848054,1321.168610"/>
    <poly id="130973546" type="natural.coastline" color="140,196,107" fill="0" layer="-4.00" shape="3284.050898,1896.668444 2977.075753,2378.825204 2619.127353,2145.630213"/>
    <poly id="130976252" type="natural.coastline" color="140,196,107" fill="0" layer="-4.00" shape="2300.688237,2597.313955 2294.475396,2606.831272 2265.872740,2650.593539"/>
    <poly id="130977586" type="natural.coastline" color="140,196,107" fill="0" layer="-4.00" shape="2457.555059,2716.988705 2490.988647,2666.877469 2532.764697,2605.104098 2535.182735,2606.560721 2537.008127,2603.298930 2560.049941,2619.543255 2561.082377,2620.273751 2601.429901,2557.908248 2646.239667,2488.665516 2646.065741,2481.911860 2648.798496,2475.111236 2653.090384,2470.620957 2658.055858,2469.339416 2718.079125,2383.690996 2716.666504,2382.244109 2747.501950,2343.026311 2855.397827,2410.641158 2852.019329,2415.031335 2939.640945,2472.813167 3165.644139,2619.371358"/>
    <poly id="130977923" type="landuse.industrial" color="209,209,204" fill="0" layer="-3.00" shape="2453.174070,1527.400182 2224.079954,1886.961311"/>
    <poly id="130977923#1" type="natural.coastline" color="140,196,107" fill="0" layer="-4.00" shape="2453.174070,1527.400182 2224.079954,1886.961311"/>
    <poly id="130978131" type="natural.coastline" color="140,196,107" fill="0" layer="-4.00" shape="2519.391758,2258.726485 2498.313618,2290.059210 2415.112973,2420.224689 2407.406946,2432.056694 2385.293737,2466.042728 2351.841680,2517.607788 2323.445068,2561.234174 2300.688237,2597.313955"/>
    <poly id="130978665" type="natural.coastline" color="140,196,107" fill="0" layer="-4.00" shape="1059.617364,2272.678529 959.320140,2204.889821 957.638901,2202.270673 956.834708,2198.808534 958.666512,1787.677498 1004.070676,1723.155672 1014.960193,1732.004900 1042.338335,1702.797250 1027.738557,1689.157751 1203.312725,1441.954035"/>
    <poly id="130979638" type="natural.coastline" color="140,196,107" fill="1" layer="-4.00" shape="996.388706,2611.706478 973.111711,2626.086684 828.759141,2410.577910 822.513844,2389.246096 825.342170,2376.453255 832.728842,2373.254442 844.669785,2372.106241 853.205754,2373.885037 871.144201,2401.038435 900.516517,2380.114135 911.626792,2392.898592 956.826932,2363.700109 961.597343,2372.160019 886.137197,2423.713809 1005.165743,2603.831177 996.388706,2611.706478"/>
    <poly id="130979644" type="natural.coastline" color="140,196,107" fill="0" layer="-4.00" shape="1479.865306,1580.917247 1515.162503,1526.319646"/>
    <poly id="149120017" type="building.yes" color="255,230,230" fill="1" layer="-1.00" shape="1999.062371,2772.489656 1977.988770,2805.398942 1991.900711,2814.233947 2023.857553,2764.316672 2018.599607,2760.987392 2030.575726,2742.279629 2040.042012,2748.285635 2048.828885,2734.576191 2037.902047,2727.645372 2023.478271,2731.573946 2018.426577,2729.540022 1993.293196,2768.833940 1999.062371,2772.489656"/>
    <poly id="149120021" type="building.yes" color="255,230,230" fill="1" layer="-1.00" shape="2224.961491,1674.414270 2227.396491,1670.634582 2220.914146,1666.488338 2218.479148,1670.268028 2224.961491,1674.414270"/>
    <poly id="149120022" type="building.yes" color="255,230,230" fill="1" layer="-1.00" shape="2339.767851,1193.408834 2397.343300,1230.158659 2426.450040,1184.959838 2368.874435,1148.209823 2339.767851,1193.408834"/>
    <poly id="149120024" type="building.yes" color="255,230,230" fill="1" layer="-1.00" shape="2773.291940,2244.954515 2779.434578,2248.783623 2785.199233,2239.582813 2779.056729,2235.764792 2773.291940,2244.954515"/>
    <poly id="149120025" type="building.yes" color="255,230,230" fill="1" layer="-1.00" shape="2391.941571,1128.089806 2454.246617,1167.854351 2484.322558,1121.146174 2422.017338,1081.381416 2391.941571,1128.089806"/>
    <poly id="149120027" type="building.yes" color="255,230,230" fill="1" layer="-1.00" shape="2518.937102,1340.653460 2534.666527,1350.565138 2540.557671,1341.307166 2524.828237,1331.395476 2518.937102,1340.653460"/>
    <poly id="149120029" type="building.yes" color="255,230,230" fill="1" layer="-1.00" shape="2832.116277,2014.721173 2883.391730,2047.968415 2901.714069,2019.965307 2850.438532,1986.717959 2832.116277,2014.721173"/>
    <poly id="149120031" type="building.yes" color="255,230,230" fill="1" layer="-1.00" shape="2845.230442,2166.847833 2848.252238,2168.785208 2851.745045,2163.373046 2848.723248,2161.435670 2845.230442,2166.847833"/>
    <poly id="149120034" type="building.yes" color="255,230,230" fill="1" layer="-1.00" shape="2512.593240,1113.064933 2550.210869,1137.160823 2594.626941,1068.455566 2557.018078,1044.348283 2512.593240,1113.064933"/>
    <poly id="149120039" type="building.yes" color="255,230,230" fill="1" layer="-1.00" shape="2790.028488,1930.343094 2844.957681,1845.446339 2785.176618,1807.112460 2730.247726,1892.009587 2790.028488,1930.343094"/>
    <poly id="149120041" type="building.yes" color="255,230,230" fill="1" layer="-1.00" shape="2201.855981,1678.860476 2209.342628,1683.648768 2218.096447,1670.084182 2210.618850,1665.295771 2201.855981,1678.860476"/>
    <poly id="149120042" type="building.yes" color="255,230,230" fill="1" layer="-1.00" shape="2124.521730,1692.786960 2138.006942,1701.416754 2143.899221,1692.302690 2130.413864,1683.661795 2124.521730,1692.786960"/>
    <poly id="149120043" type="building.yes" color="255,230,230" fill="1" layer="-1.00" shape="1952.417192,2871.355658 1984.124184,2821.774123 1973.936927,2815.322306 1942.229965,2864.903877 1952.417192,2871.355658"/>
    <poly id="149120044" type="amenity.conference_hall" color="237,199,199" fill="1" layer="-1.00" shape="1705.572673,1696.959205 1770.731525,1596.264505 1758.167657,1588.200640 1740.025022,1576.567592 1674.866354,1677.262519 1705.572673,1696.959205"/>
    <poly id="149120044#1" type="building.yes" color="255,230,230" fill="1" layer="-1.00" shape="1705.572673,1696.959205 1770.731525,1596.264505 1758.167657,1588.200640 1740.025022,1576.567592 1674.866354,1677.262519 1705.572673,1696.959205"/>
    <poly id="149120046" type="building.yes" color="255,230,230" fill="1" layer="-1.00" shape="2022.287710,1875.286069 2038.436860,1871.602379 2034.550181,1854.733342 2018.401139,1858.428130 2022.287710,1875.286069"/>
    <poly id="149120047" type="building.yes" color="255,230,230" fill="1" layer="-1.00" shape="2833.908309,2159.443901 2844.726497,2166.377031 2848.415115,2160.685124 2837.596923,2153.751990 2833.908309,2159.443901"/>
    <poly id="149120049" type="building.yes" color="255,230,230" fill="1" layer="-1.00" shape="2362.445050,1428.105828 2379.096769,1438.615955 2394.361874,1414.643207 2377.719188,1404.132938 2362.445050,1428.105828"/>
    <poly id="149120050" type="building.yes" color="255,230,230" fill="1" layer="-1.00" shape="2858.808260,2094.873936 2895.575549,2118.726465 2941.278951,2048.864294 2904.511649,2025.022666 2858.808260,2094.873936"/>
    <poly id="149120052" type="building.yes" color="255,230,230" fill="1" layer="-1.00" shape="2041.665073,1885.772826 2040.254138,1879.367318 2033.343818,1880.873006 2034.745564,1887.267533 2041.665073,1885.772826"/>
    <poly id="149120053" type="building.yes" color="255,230,230" fill="1" layer="-1.00" shape="2489.143730,973.945690 2554.060614,1015.375948 2583.844214,969.115495 2518.936206,927.684906 2489.143730,973.945690"/>
    <poly id="149120055" type="building.yes" color="255,230,230" fill="1" layer="-1.00" shape="2234.263172,1615.859684 2311.895628,1495.690242 2263.222054,1464.521630 2185.590084,1584.702591 2234.263172,1615.859684"/>
    <poly id="149120058" type="building.yes" color="255,230,230" fill="1" layer="-1.00" shape="2504.609198,1317.346024 2542.477273,1341.250180 2625.178177,1211.403319 2587.309802,1187.498809 2504.609198,1317.346024"/>
    <poly id="149120059" type="building.yes" color="255,230,230" fill="1" layer="-1.00" shape="2819.773137,2033.998019 2843.940854,2049.663470 2848.430212,2042.796910 2824.271542,2027.131335 2819.773137,2033.998019"/>
    <poly id="149120060" type="building.yes" color="255,230,230" fill="1" layer="-1.00" shape="2135.866541,1681.464289 2146.110643,1688.026551 2148.990036,1683.564642 2138.746069,1677.013467 2135.866541,1681.464289"/>
    <poly id="149120061" type="building.yes" color="255,230,230" fill="1" layer="-1.00" shape="2351.315362,1377.059180 2390.580397,1401.843970 2444.951026,1316.474697 2405.694844,1291.689553 2351.315362,1377.059180"/>
    <poly id="149120069" type="building.yes" color="255,230,230" fill="1" layer="-1.00" shape="2419.844750,1258.079517 2423.414872,1260.376059 2420.374919,1265.061717 2470.721696,1297.452966 2491.788420,1265.000027 2437.871418,1230.312110 2419.844750,1258.079517"/>
    <poly id="149120070" type="building.yes" color="255,230,230" fill="1" layer="-1.00" shape="2780.177061,2228.928627 2797.038781,2239.736405 2804.851154,2227.659403 2787.989422,2216.851610 2780.177061,2228.928627"/>
    <poly id="149120071" type="building.yes" color="255,230,230" fill="1" layer="-1.00" shape="2719.970193,2039.854160 2774.169222,1956.086329 2714.607542,1917.883347 2660.408947,2001.662636 2719.970193,2039.854160"/>
    <poly id="149120076" type="building.yes" color="255,230,230" fill="1" layer="-1.00" shape="2698.423049,2172.040993 2773.813844,2220.431974 2813.169926,2159.655052 2737.778858,2111.263735 2698.423049,2172.040993"/>
    <poly id="149120084" type="building.yes" color="255,230,230" fill="1" layer="-1.00" shape="2159.748546,1714.093122 2178.930856,1726.368616 2203.823832,1687.821651 2184.650535,1675.545990 2159.748546,1714.093122"/>
    <poly id="149120087" type="building.yes" color="255,230,230" fill="1" layer="-1.00" shape="2109.774023,1778.110758 2139.291645,1797.013824 2155.581665,1771.796548 2126.063999,1752.893427 2109.774023,1778.110758"/>
    <poly id="149120088" type="building.yes" color="255,230,230" fill="1" layer="-1.00" shape="2139.452101,1701.088228 2158.789799,1713.472687 2183.700567,1674.903258 2164.362962,1662.529835 2139.452101,1701.088228"/>
    <poly id="149120090" type="building.yes" color="255,230,230" fill="1" layer="-1.00" shape="2907.619191,2018.472669 2943.875283,2041.987804 3002.781533,1951.951291 2966.525387,1928.447006 2907.619191,2018.472669"/>
    <poly id="149120094" type="building.yes" color="255,230,230" fill="1" layer="-1.00" shape="2302.963004,1439.946185 2357.857026,1474.587904 2377.440224,1443.828092 2322.555155,1409.186139 2302.963004,1439.946185"/>
    <poly id="149120096" type="building.yes" color="255,230,230" fill="1" layer="-1.00" shape="2903.236140,2015.586919 2963.084514,1924.107511 2928.626804,1901.768222 2868.769558,1993.247975 2903.236140,2015.586919"/>
    <poly id="149120098" type="building.yes" color="255,230,230" fill="1" layer="-1.00" shape="2473.888096,1171.782694 2512.290921,1196.390102 2544.786829,1146.113495 2506.384027,1121.517038 2473.888096,1171.782694"/>
    <poly id="149120105" type="building.yes" color="255,230,230" fill="1" layer="-1.00" shape="2144.002665,1719.646344 2114.694888,1700.884867 2099.231395,1724.827331 2128.539130,1743.588757 2144.002665,1719.646344"/>
    <poly id="149120107" type="building.yes" color="255,230,230" fill="1" layer="-1.00" shape="2178.081459,1823.012708 2193.783292,1832.924117 2199.371745,1824.146649 2183.669904,1814.235230 2178.081459,1823.012708"/>
    <poly id="149120108" type="building.yes" color="255,230,230" fill="1" layer="-1.00" shape="2726.524997,975.863998 2765.553245,1000.498065 2843.337452,878.379542 2804.308913,853.745131 2726.524997,975.863998"/>
    <poly id="149120114" type="building.yes" color="255,230,230" fill="1" layer="-1.00" shape="2130.695678,1745.847237 2160.213220,1764.739282 2176.201084,1739.980618 2146.692555,1721.088408 2130.695678,1745.847237"/>
    <poly id="149120115" type="building.yes" color="255,230,230" fill="1" layer="-1.00" shape="2327.399163,1673.268041 2397.512249,1563.187447 2353.345630,1535.312796 2283.242034,1645.404721 2327.399163,1673.268041"/>
    <poly id="149120117" type="building.yes" color="255,230,230" fill="1" layer="-1.00" shape="2226.002876,1640.755464 2171.039037,1605.560768 2158.676646,1624.683481 2213.649480,1659.877988 2226.002876,1640.755464"/>
    <poly id="149120121" type="building.yes" color="255,230,230" fill="1" layer="-1.00" shape="2255.358971,1350.336115 2304.944881,1381.981515 2365.716176,1287.602447 2316.129985,1255.956706 2255.358971,1350.336115"/>
    <poly id="149120125" type="building.yes" color="255,230,230" fill="1" layer="-1.00" shape="2789.628205,2214.601666 2806.124839,2225.181003 2821.003050,2202.178830 2804.506394,2191.599465 2789.628205,2214.601666"/>
    <poly id="149120129" type="building.yes" color="255,230,230" fill="1" layer="-1.00" shape="2308.739618,1239.940740 2367.510946,1277.452098 2396.750755,1232.051840 2337.970210,1194.540400 2308.739618,1239.940740"/>
    <poly id="149120133" type="building.yes" color="255,230,230" fill="1" layer="-1.00" shape="2386.597110,1473.067621 2393.544273,1477.441197 2420.316111,1435.410577 2413.377850,1431.025776 2386.597110,1473.067621"/>
    <poly id="149120138" type="building.yes" color="255,230,230" fill="1" layer="-1.00" shape="2014.448464,1815.080239 2035.293235,1815.342950 2035.689410,1783.034381 2014.853620,1782.771555 2014.448464,1815.080239"/>
    <poly id="149120139" type="building.yes" color="255,230,230" fill="1" layer="-1.00" shape="2806.866916,2189.118766 2823.180954,2199.578359 2840.716930,2172.483344 2824.402865,2162.023718 2806.866916,2189.118766"/>
    <poly id="149120141" type="building.yes" color="255,230,230" fill="1" layer="-1.00" shape="2561.928905,1037.842474 2603.098598,1064.224320 2650.040035,991.627759 2608.861106,965.245806 2561.928905,1037.842474"/>
    <poly id="149120144" type="building.yes" color="255,230,230" fill="1" layer="-1.00" shape="2146.954545,1642.844255 2201.653430,1677.864590 2213.180336,1660.028012 2158.481392,1625.007606 2146.954545,1642.844255"/>
    <poly id="149120148" type="building.yes" color="255,230,230" fill="1" layer="-1.00" shape="2457.932733,1023.407882 2523.059375,1064.968436 2553.509452,1017.690149 2488.382625,976.129371 2457.932733,1023.407882"/>
    <poly id="149120154" type="building.yes" color="255,230,230" fill="1" layer="-1.00" shape="2604.105217,1156.796158 2646.510900,1183.562288 2728.956994,1054.107937 2686.560170,1027.352391 2604.105217,1156.796158"/>
    <poly id="149120155" type="building.yes" color="255,230,230" fill="1" layer="-1.00" shape="2190.435854,1709.697070 2199.566082,1715.552130 2206.578208,1704.704776 2197.439055,1698.860912 2190.435854,1709.697070"/>
    <poly id="149120158" type="building.yes" color="255,230,230" fill="1" layer="-1.00" shape="2135.992751,1674.840036 2149.423227,1683.437246 2163.589445,1661.507746 2150.168008,1652.910402 2135.992751,1674.840036"/>
    <poly id="149120161" type="building.yes" color="255,230,230" fill="1" layer="-1.00" shape="1985.621014,2891.987267 2022.656043,2884.205846 2014.248079,2844.529631 1977.213027,2852.322174 1985.621014,2891.987267"/>
    <poly id="149120162" type="building.yes" color="255,230,230" fill="1" layer="-1.00" shape="2225.071107,1839.747127 2298.948641,1723.739572 2256.179208,1696.746674 2182.301839,1812.743496 2225.071107,1839.747127"/>
    <poly id="149120168" type="building.yes" color="255,230,230" fill="1" layer="-1.00" shape="2026.750424,2830.285925 2065.536939,2822.039221 2057.577733,2784.942144 2018.800116,2793.188767 2026.750424,2830.285925"/>
    <poly id="149120170" type="building.yes" color="255,230,230" fill="1" layer="-1.00" shape="2824.228166,2082.420657 2850.020947,2099.142145 2869.774436,2068.958148 2843.981472,2052.225511 2824.228166,2082.420657"/>
    <poly id="149120185" type="building.yes" color="255,230,230" fill="1" layer="-1.00" shape="2034.344461,1922.826502 2040.228357,1920.357341 2035.441924,1909.079391 2029.567216,1911.559535 2034.344461,1922.826502"/>
    <poly id="149120187" type="building.yes" color="255,230,230" fill="1" layer="-1.00" shape="2423.536990,1080.475170 2486.152610,1120.435781 2515.882242,1074.264481 2453.266449,1034.303658 2423.536990,1080.475170"/>
    <poly id="149120188" type="building.yes" color="255,230,230" fill="1" layer="-1.00" shape="2387.542942,1549.543995 2410.383915,1563.960111 2424.742527,1541.407458 2401.901523,1526.991306 2387.542942,1549.543995"/>
    <poly id="149120190" type="building.yes" color="255,230,230" fill="1" layer="-1.00" shape="2077.992027,1757.760464 2107.463954,1776.619623 2128.268424,1744.401923 2098.805496,1725.542582 2077.992027,1757.760464"/>
    <poly id="149120194" type="building.yes" color="255,230,230" fill="1" layer="-1.00" shape="2860.966630,1820.056390 2915.914917,1735.126621 2856.471137,1696.998874 2801.514094,1781.929125 2860.966630,1820.056390"/>
    <poly id="149120195" type="building.yes" color="255,230,230" fill="1" layer="-1.00" shape="2367.648539,1536.089880 2386.107226,1547.709176 2399.852157,1526.073721 2381.402502,1514.454284 2367.648539,1536.089880"/>
    <poly id="149120200" type="building.yes" color="255,230,230" fill="1" layer="-1.00" shape="2470.910775,1177.876402 2439.517463,1226.442403 2479.116325,1251.822502 2499.905997,1219.661439 2516.103301,1230.033228 2526.716129,1213.628340 2470.910775,1177.876402"/>
    <poly id="149120207" type="building.yes" color="255,230,230" fill="1" layer="-1.00" shape="2823.261781,2049.563246 2801.463814,2082.878656 2834.268677,2104.150670 2840.402731,2094.778952 2821.220103,2082.335694 2842.475842,2049.847916 2819.358030,2034.857314 2813.766253,2043.401461 2823.261781,2049.563246"/>
    <poly id="149120209" type="building.yes" color="255,230,230" fill="1" layer="-1.00" shape="2452.323460,1501.818537 2474.474768,1467.022537 2465.108329,1461.114648 2509.544959,1391.332549 2471.083655,1367.058696 2389.212705,1495.598976 2427.673844,1519.883563 2442.947846,1495.899691 2452.323460,1501.818537"/>
    <poly id="149120216" type="building.yes" color="255,230,230" fill="1" layer="-1.00" shape="2869.024632,2213.989511 2872.570948,2208.510138 2868.654601,2206.006923 2876.476021,2193.918785 2855.515202,2180.476780 2812.470921,2246.989801 2840.360838,2264.883477 2872.037215,2215.915913 2869.024632,2213.989511"/>
    <poly id="149122998" type="landuse.industrial" color="209,209,204" fill="1" layer="-3.00" shape="2976.150540,2377.239160 3497.187295,1573.129266 3477.773758,1555.151908 3589.125433,1432.595719 3568.490104,1411.748874 3693.697064,1270.121813 3646.711633,1198.146539 3609.183469,1212.194577 3577.219644,1139.814090 3528.816934,1025.436307 3499.193706,1037.069570 3444.073876,911.326240 3428.398698,919.128163 3396.842003,917.884034 3400.861032,866.628537 3390.631605,843.513591 3370.868181,851.088372 2560.766399,2106.337402 2976.150540,2377.239160"/>
    <poly id="149123001" type="building.yes" color="255,230,230" fill="1" layer="-1.00" shape="2936.073953,1866.599712 2950.571769,1875.906019 2961.033599,1859.747542 2974.435932,1868.357398 2982.275649,1856.246964 2954.366546,1838.341961 2936.073953,1866.599712"/>
    <poly id="149123018" type="leisure.park" color="207,245,201" fill="1" layer="-2.00" shape="2935.182148,1889.074515 3042.036995,1956.427203 3108.669054,1850.765932 3123.474443,1831.303966 3106.753762,1821.680807 3095.336130,1840.424479 3026.886594,1797.547482 2965.309742,1886.329811 2948.708757,1876.871871 2935.182148,1889.074515"/>
    <poly id="149124412" type="building.yes" color="255,230,230" fill="1" layer="-1.00" shape="1521.679606,2548.154570 1525.623650,2550.679043 1531.967553,2540.837822 1512.539841,2528.433676 1514.290023,2525.705080 1501.946862,2517.827439 1497.033517,2525.454362 1498.959855,2526.683884 1495.778997,2531.615710 1499.366987,2533.911653 1497.829716,2536.282610 1520.151526,2550.536502 1521.679606,2548.154570"/>
    <poly id="149124414" type="building.yes" color="255,230,230" fill="1" layer="-1.00" shape="1847.536540,2501.543475 1845.306358,2505.010127 1842.536157,2508.749733 1841.439340,2513.045387 1841.732379,2516.946588 1843.821208,2521.779487 1846.318221,2524.477396 1850.121933,2526.648769 1853.865336,2527.611723 1858.200012,2527.324877 1861.173290,2526.078746 1863.731213,2524.205460 1865.954867,2521.670731 1867.394237,2518.702020 1914.760500,2549.219006 1941.006857,2508.358003 1925.222589,2498.303872 1929.051929,2492.332475 1875.381865,2458.177496 1871.659142,2463.981192 1865.943914,2460.313787 1841.647753,2497.756217 1847.536540,2501.543475"/>
    <poly id="149124415" type="building.yes" color="255,230,230" fill="1" layer="-1.00" shape="1941.667453,2557.892493 1985.209005,2586.039010 2008.183497,2550.809861 1964.641855,2522.663231 1941.667453,2557.892493"/>
    <poly id="149124416" type="building.yes" color="255,230,230" fill="1" layer="-1.00" shape="1145.915012,2294.472979 1153.335177,2299.006075 1157.214415,2292.712001 1149.794247,2288.178901 1145.915012,2294.472979"/>
    <poly id="149124417" type="building.yes" color="255,230,230" fill="1" layer="-1.00" shape="1823.844684,2259.072121 1837.093924,2267.704381 1847.974220,2251.162123 1834.724967,2242.529846 1823.844684,2259.072121"/>
    <poly id="149124418" type="building.yes" color="255,230,230" fill="1" layer="-1.00" shape="1909.838117,2063.360272 1931.505044,2077.357099 1954.000533,2042.843799 1932.333563,2028.846916 1909.838117,2063.360272"/>
    <poly id="149124419" type="building.yes" color="255,230,230" fill="1" layer="-1.00" shape="2019.301214,2362.962130 2029.062772,2369.374923 2038.184539,2355.616959 2032.933907,2352.165547 2028.422973,2349.204156 2019.301214,2362.962130"/>
    <poly id="149124420" type="building.yes" color="255,230,230" fill="1" layer="-1.00" shape="2286.706160,2242.701598 2298.116794,2226.497246 2318.481626,2197.580102 2283.091582,2175.343566 2256.412240,2218.017015 2286.706160,2242.701598"/>
    <poly id="149124421" type="building.yes" color="255,230,230" fill="1" layer="-1.00" shape="1045.025621,1923.953570 1053.963260,1928.123703 1060.104134,1915.089813 1051.166484,1910.919674 1045.025621,1923.953570"/>