<?xml version="1.0" encoding="UTF-8"?>

<!-- generated on 2022-03-08 13:57:30 by Eclipse SUMO duarouter Version 1.9.2
<configuration xmlns:xsi="http://www.w3.org/2001/XMLSchema-instance" xsi:noNamespaceSchemaLocation="http://sumo.dlr.de/xsd/duarouterConfiguration.xsd">

    <input>
        <net-file value="osm.net.xml"/>
        <route-files value="trips.trips.xml"/>
    </input>

    <output>
        <output-file value="random_200.rou.xml"/>
        <alternatives-output value="random_200.rou.alt.xml"/>
    </output>

    <time>
        <begin value="0"/>
        <end value="200"/>
    </time>

    <report>
        <no-warnings value="true"/>
        <ignore-errors value="true"/>
        <no-step-log value="true"/>
    </report>

</configuration>
-->

<routes xmlns:xsi="http://www.w3.org/2001/XMLSchema-instance" xsi:noNamespaceSchemaLocation="http://sumo.dlr.de/xsd/routes_file.xsd">
    <vehicle id="0" depart="0.00">
        <route edges="405795842#1 405795842#2 405795842#3 405795842#4 62066589#0 62066589#1 354858505#1 354858505#2 354858493 354858498#1 285454834#1 998621643#1 998621643#2 171300277#1 171300277#2 257239010#0 257239010#2 721120031#1 721120031#2 149122128#1 -149122118#5"/>
    </vehicle>
    <vehicle id="1" depart="1.00">
        <route edges="171300278#3 59254388#0 354858493 354858498#1 285454834#1 998621643#1 998621643#2 171300277#1 171300277#2 257239010#0 257239010#2 721120031#1 721120031#2 149122128#1"/>
    </vehicle>
    <vehicle id="2" depart="2.00">
        <route edges="4853035#0 4853035#3 4853035#4 405795843#1 405795843#2 582338491#0 582338491#1 582338491#2 987049867 405795842#0 405795842#1 405795842#2 405795842#3 405795841"/>
    </vehicle>
    <vehicle id="3" depart="3.00">
        <route edges="62066584 62066588 265010612 27241672#0 333682052#0 333682052#1 333682052#2 265010604 -27241668#10 -27241668#9 -27241668#8"/>
    </vehicle>
    <vehicle id="4" depart="4.00">
        <route edges="266086974#1 265010575#2 651637968#0 651637968#1 651637969 266086999 62066585#1 353940886 682445857#1 682445857#2 354858498#1 285454834#1 998621643#1 998621643#2 171300277#1 171300277#2 257239010#0 257239010#2 721120031#1 721120031#2 149122128#1 149122118#6 149122118#7 149122118#8 149122118#9 -149122118#9"/>
    </vehicle>
    <vehicle id="5" depart="5.00">
        <route edges="149122128#1 -149122128#1 23350417#1 23350417#2 23350417#3 23350417#4 23350417#5 257239019#0 257239019#2 682445848#2 4853035#3 4853035#4 405795843#1 405795843#2 582338491#0 582338491#1 582338491#2 987049867 266086964 651637969 266086971#1 266086971#2 986165964 45177385#1 265010620#1 265010620#2 27242140#0 27242140#1"/>
    </vehicle>
    <vehicle id="6" depart="6.00">
        <route edges="-149122118#7 149122118#7 149122118#8 149122118#9 149122118#10"/>
    </vehicle>
    <vehicle id="7" depart="7.00">
        <route edges="405795843#2 582338491#0 582338491#1 582338491#2 987049867 405795842#0 405795842#1 405795842#2 405795842#3 405795842#4 62066589#0 62066589#1 354858483#1 333682049#0 333682049#1 333682049#5 333682049#7"/>
    </vehicle>
    <vehicle id="8" depart="8.00">
        <route edges="149122128#1 -149122128#1 23350417#1 23350417#2 23350417#3 23350417#4 23350417#5 257239016#0 257239016#1 171300278#1 171300278#2 171300278#3 59254388#0 59254388#2 59254388#3 59254388#4 354858505#1"/>
    </vehicle>
    <vehicle id="9" depart="9.00">
        <route edges="550281563 550281566 986165964 45177385#1 265010598#1 265010598#4 265010598#5 266086974#0 266086974#1 266086974#2 333682044#1 265010574 265010581#0 265010581#1 62066584 62066589#0 62066589#1 354858483#1 -1015181077#7 -1015181077#6"/>
    </vehicle>
    <vehicle id="10" depart="10.00">
        <route edges="550281563 550281566 986165964 45177385#1 265010598#1 265010598#4 265010598#5 23605011#1 266086999 987049867 405795842#0 405795842#1 405795842#2 405795842#3 405795841 406000909#1"/>
    </vehicle>
    <vehicle id="11" depart="11.00">
        <route edges="24835448 44837353#1 285454834#1 171300278#2 24059844 59254382#3 -397862673#3 -397862673#2 -397862673#1 -397862673#0 149835645#10 149835645#11 -397862673#7"/>
    </vehicle>
    <vehicle id="12" depart="12.00">
        <route edges="820214408 951326913#0 998621643#1 998621643#2 171300277#1 171300277#2 257239010#0 257239010#2"/>
    </vehicle>
    <vehicle id="13" depart="13.00">
        <route edges="-27241669#4"/>
    </vehicle>
    <vehicle id="15" depart="15.00">
        <route edges="550281563 550281566 986165964 45177385#1 265010598#1 265010598#4 265010598#5 266086974#0 266086974#1 266086974#2 333682044#1 265010574 265010581#0 265010581#1 62066584 62066589#0 62066589#1 461222309#2"/>
    </vehicle>
    <vehicle id="17" depart="17.00">
        <route edges="265010588#4 265010598#1 265010598#4 265010598#5 23605011#1 266086999 62066585#1 353940886 682445857#1 682445857#2 59254381#0 59254381#1 27241686#0 27241686#1 27241686#2 353940876#0 353940876#1 353940876#2"/>
    </vehicle>
    <vehicle id="18" depart="18.00">
        <route edges="550281566 986165964 45177385#1 265010598#1 265010598#4 265010598#5 23605011#1 266086999 62066585#1 353940886 682445857#1 682445857#2 59254381#0 59254381#1 59254381#2 59254381#3 59254382#0 59254382#1 59254382#2 59254382#3 397862664#4"/>
    </vehicle>
    <vehicle id="19" depart="19.00">
        <route edges="582338491#0 582338491#1 582338491#2 62066585#1 353940886 682445857#1 682445857#2 354858498#1"/>
    </vehicle>
    <vehicle id="21" depart="21.00">
        <route edges="149835645#10 -149835645#10 -149835645#8 -149835645#7 -149835645#6 149835636#0 149835636#1 149835636#2 149835636#3 45177486 353940885 353940882#0 353940882#1 353940882#2 1015181076#0 1015181076#1 354858502#0 354858502#1 266086958#0 266086958#1 266086958#2 266086964 266086965#1 23605011#1"/>
    </vehicle>
    <vehicle id="22" depart="22.00">
        <route edges="-27241668#1 -27241668#0 -265010620#2 -265010620#1 265010598#1 265010598#4 265010598#5 23605011#1 266086999 62066585#1 353940886 682445857#1 682445857#2 59254381#0 59254381#1 27241686#0 27241686#1 353940877#1 -149835636#3 -149835636#2 -149835636#1 -149835636#0 149835645#6 149835645#7 149835645#8 149835645#10"/>
    </vehicle>
    <vehicle id="23" depart="23.00">
        <route edges="-27241671#1 -27241671#0 27241671#0 27241671#1 27241671#2 265010598#4 265010598#5 23605011#1 266086999 62066585#1 353940886 682445857#1 682445857#2 354858498#1 285454834#1 171300278#2 171300278#3"/>
    </vehicle>
    <vehicle id="25" depart="25.00">
        <route edges="265010581#0 265010581#1 62066584 62066589#0 62066589#1 354858505#1 354858505#2 354858493 354858498#1 285454834#1 998621643#1 998621643#2 171300277#1 171300277#2 257239010#0 257239010#2 721120031#1 721120031#2 149122128#1 149122118#6 149122118#7 149122118#8 149122118#9 149122118#10"/>
    </vehicle>
    <vehicle id="26" depart="26.00">
        <route edges="171300278#3 59254388#0 354858502#0 354858502#1 266086958#0 266086958#1 266086958#2 266086964 651637969 266086971#1 266086971#2 986165964 810346011#1 810346011#2 810346011#3"/>
    </vehicle>
    <vehicle id="27" depart="27.00">
        <route edges="405795843#1 405795843#2 582338491#0 582338491#1 582338491#2 62066585#1 353940886 682445857#1 682445857#2 59254381#0 59254381#1 59254381#2 59254381#3 59254382#0 59254382#1 59254382#2 59254382#3 397862664#4"/>
    </vehicle>
    <vehicle id="28" depart="28.00">
        <route edges="-397862673#7 -397862673#6 817912283#2 400919425#0 400919425#1 400919425#2 400919425#3 400919425#4 353940876#0 353940876#1 353940876#2 461203109#1 333682043#1 333682043#3 333682043#4 333682043#5 333682043#6 333682043#7 1015181078#1 1015181078#3 461222309#2"/>
    </vehicle>
    <vehicle id="29" depart="29.00">
        <route edges="-397862673#7 -397862673#6 817912283#2 400919425#0 400919425#1 400919425#2 400919425#3 400919425#4 353940885 353940882#0 353940882#1 353940882#2 1015181076#0 1015181076#1 354858502#0 354858502#1 266086958#0 266086958#1 266086958#2 266086964 266086965#1 265010588#0 265010588#1 265010598#4"/>
    </vehicle>
    <vehicle id="30" depart="30.00">
        <route edges="987049868#0 987049868#1 23605011#1 266086999 62066585#1 353940886 682445857#1 682445857#2 59254381#0 59254381#1 59254381#2 59254381#3 59254382#0 59254382#1 59254382#2 59254382#3 817912283#2 400919425#0 400919425#1 400919425#2"/>
    </vehicle>
    <vehicle id="31" depart="31.00">
        <route edges="354858483#7 461203108#1 333682046#1 333682046#2 353940882#0 353940882#1 353940882#2 1015181076#0 1015181076#1 354858502#0 354858502#1 266086958#0 266086958#1 266086958#2 405795842#0 405795842#1 405795842#2"/>
    </vehicle>
    <vehicle id="33" depart="33.00">
        <route edges="149835645#10 -149835645#10 397862664#0 397862664#1 817912283#2 24835448 44837353#1 285454834#1 998621643#1 998621643#2 171300277#1 171300277#2 257239010#0 257239010#2 721120031#1 721120031#2 149122128#1 -149122128#1"/>
    </vehicle>
    <vehicle id="34" depart="34.00">
        <route edges="24059844 59254382#3 817912283#2 24835448 44837353#1 285454834#1 171300278#2"/>
    </vehicle>
    <vehicle id="35" depart="35.00">
        <route edges="149122118#4 -149122118#4 -149122118#3 -149122118#2 -149122118#1 23350417#4 23350417#5 257239019#0 257239019#2 682445848#2 4853035#3 4853035#4 405795843#1 405795843#2 582338491#0 582338491#1 582338491#2 987049867 266086964 651637969 266086971#1 266086971#2 986165964 810346011#1 810346011#2 810346011#3"/>
    </vehicle>
    <vehicle id="36" depart="36.00">
        <route edges="59254382#1 59254382#2 59254382#3 817912283#2 24835448 44837353#1 285454834#1 171300278#2 24059844"/>
    </vehicle>
    <vehicle id="39" depart="39.00">
        <route edges="171300278#2 171300278#3 59254381#0 59254381#1 27241686#0 27241686#1 353940877#1 -149835636#3 -149835636#2 -149835636#1 -149835636#0 149835645#6 149835645#7"/>
    </vehicle>
    <vehicle id="40" depart="40.00">
        <route edges="354858487#3 354858487#4 354858484#1 651639707#1 651639707#2 651639707#3 62066588 62066584 62066589#0 62066589#1 354858505#1 354858505#2 354858493 354858498#1 285454834#1 998621643#1 998621643#2 171300268#0 171300268#1 171300268#2 171300268#3"/>
    </vehicle>
    <vehicle id="41" depart="41.00">
        <route edges="363200560#0 363200560#1 682445857#1 682445857#2 354858498#1 285454834#1 998621643#1 998621643#2 171300277#1 171300277#2 257239019#2 27241669#1 27241669#2 27241669#3 -682459916#1 682459916#1"/>
    </vehicle>
    <vehicle id="42" depart="42.00">
        <route edges="265010616#0 486067307 265010585#0 265010598#1 265010598#4 265010598#5 23605011#1 266086999 62066585#1 353940886 682445857#1 682445857#2 354858498#1 285454834#1 998621643#1 998621643#2 171300277#1 171300277#2 257239010#0 257239010#2 721120031#1 721120031#2 149122128#1 149122118#6 149122118#7 149122118#8 149122118#9"/>
    </vehicle>
    <vehicle id="43" depart="43.00">
        <route edges="998621643#2 171300268#0 171300268#1 171300268#2 171300268#3 4853035#4 405795843#1 405795843#2 582338491#0 582338491#1 582338491#2 987049867 266086964 651637969 266086971#1 266086971#2 986165964 45177385#1 265010620#1 265010620#2 27242140#0 27242140#1"/>
    </vehicle>
    <vehicle id="44" depart="44.00">
        <route edges="-27241669#2 -27241669#1 743545404#3 257239010#0 257239016#0 257239016#1 171300278#1 171300278#2 24059844 59254382#3 -397862673#3 -397862673#2 -397862673#1 -397862673#0 149835645#10 -149835645#10"/>
    </vehicle>
    <vehicle id="45" depart="45.00">
        <route edges="-27241677#9 -27241677#8 -27241677#7 -333682053#5 -333682053#4 -333682053#2 -333682053#1 -333682053#0 461203108#1 333682046#1 333682046#2 353940877#0 353940877#1 59254382#0 59254382#1 59254382#2 59254382#3 397862664#4"/>
    </vehicle>
    <vehicle id="46" depart="46.00">
        <route edges="4854085 4853033 4853044#0 4853044#1 651637968#1 651637969 266086999 987049867 405795842#0 405795842#1 405795842#2 405795842#3 405795841 406000909#1 266086980"/>
    </vehicle>
    <vehicle id="47" depart="47.00">
        <route edges="-171300268#2 171300268#2 171300268#3 4853035#4 405795843#1 405795843#2 582338491#0 582338491#1 582338491#2 987049867 266086964 266086965#1 266086967#0 266086967#1 266086967#2 27241668#7 27241668#8 27241668#9 27241668#10 -265010604 265010601#0 265010601#1"/>
    </vehicle>
    <vehicle id="48" depart="48.00">
        <route edges="998621643#2 171300268#0 171300268#1 171300268#2 171300268#3 4853035#4 405795843#1 405795843#2 582338491#0 582338491#1 582338491#2 987049867 266086964 266086965#1 266086974#0 266086974#1 266086974#2 333682045"/>
    </vehicle>
    <vehicle id="51" depart="51.00">
        <route edges="461203108#1 333682046#1 333682046#2 353940877#0 27241686#2 353940876#0 353940876#1 353940876#2 461203109#1 333682043#1 -27241676#1 -27241676#0 333682049#14 333682049#15"/>
    </vehicle>
    <vehicle id="52" depart="52.00">
        <route edges="171300278#2 24059844 59254382#3 817912283#2 400919425#0 400919425#1 400919425#2 400919425#3"/>
    </vehicle>
    <vehicle id="53" depart="53.00">
        <route edges="-27242140#1 -27242140#0 -265010620#2 -265010620#1 265010598#1 265010598#4 265010598#5 23605011#1 266086999 987049867 405795842#0 405795842#1 405795842#2 405795842#3 405795841 406000909#1 266086980"/>
    </vehicle>
    <vehicle id="54" depart="54.00">
        <route edges="27241668#1 27241668#2 27241671#0 27241671#1 27241671#2 265010588#4 265010617#1 810346011#1 810346011#2 810346011#3"/>
    </vehicle>
    <vehicle id="55" depart="55.00">
        <route edges="59254382#1 59254382#2 59254382#3 817912283#2 24835448 44837353#1 285454834#1 998621643#1 998621643#2 171300268#0 171300268#1 171300268#2 171300268#3"/>
    </vehicle>
    <vehicle id="56" depart="56.00">
        <route edges="285454834#1 998621643#1 998621643#2 171300277#1 171300277#2 257239019#2 27241669#1 27241669#2 27241669#3 -682459916#1"/>
    </vehicle>
    <vehicle id="57" depart="57.00">
        <route edges="651637968#1 266086965#1 266086974#0 266086974#1 265010575#2 651637968#0"/>
    </vehicle>
    <vehicle id="58" depart="58.00">
        <route edges="23350417#5 257239016#0 257239016#1 171300278#1 171300278#2 24059844 59254382#3 817912283#2 400919425#0 400919425#1 400919425#2"/>
    </vehicle>
    <vehicle id="59" depart="59.00">
        <route edges="397862664#4 -397862673#7"/>
    </vehicle>
    <vehicle id="60" depart="60.00">
        <route edges="4853044#0 4853044#1 651637968#1 651637969 266086999 62066585#1 353940886 682445857#1 682445857#2 59254381#0 59254381#1 27241686#0 27241686#1 27241686#2 353940876#0 353940876#1 353940876#2 461203109#1 333682043#1 -27241676#1 -27241676#0 333682049#14 333682049#15"/>
    </vehicle>
    <vehicle id="61" depart="61.00">
        <route edges="4854085 4853033 4853044#0 4853044#1 651637968#1 651637969 266086999 62066585#1 353940886 682445857#1 682445857#2 59254381#0 59254381#1 27241686#0 27241686#1 27241686#2 353940876#0 353940876#1 353940876#2 461203109#1 461203108#1 333682046#1"/>
    </vehicle>
    <vehicle id="62" depart="62.00">
        <route edges="-1015181077#1 -1015181077#0 1015181076#0 1015181076#1 354858493 59254381#0 59254381#1 59254381#2 59254381#3 59254382#0 59254382#1 59254382#2 59254382#3 817912283#2 24835448"/>
    </vehicle>
    <vehicle id="63" depart="63.00">
        <route edges="-149122118#2 -149122118#1 23350417#4 23350417#5 257239019#0 257239019#2 682445848#2 4853035#3 4853035#4 405795843#1 405795843#2 582338491#0 582338491#1 582338491#2 987049867 266086964 651637969 266086971#1 266086971#2 986165964 810346011#1 810346011#2 810346011#3"/>
    </vehicle>
    <vehicle id="64" depart="64.00">
        <route edges="59254382#2 59254382#3 817912283#2 400919425#0 400919425#1 400919425#2 400919425#3 400919425#4 353940885 353940877#0 353940877#1 59254382#0 59254382#1"/>
    </vehicle>
    <vehicle id="65" depart="65.00">
        <route edges="24059844 59254382#3 -397862673#3 -397862673#2 -397862673#1 -397862673#0 -149835645#8"/>
    </vehicle>
    <vehicle id="66" depart="66.00">
        <route edges="59254382#2 59254382#3 817912283#2 400919425#0 400919425#1 400919425#2 400919425#3 400919425#4 353940885 353940882#0 353940882#1 353940882#2 1015181076#0 1015181076#1 354858502#0 354858502#1 266086958#0 266086958#1 266086958#2 266086964 651637969 266086971#1 266086971#2 986165964 810346011#1 810346011#2 810346011#3"/>
    </vehicle>
    <vehicle id="67" depart="67.00">
        <route edges="-27241668#8 -27241668#7 -27241668#6 -27241668#5 -27241668#4 -27241668#3 27241671#0 27241671#1 27241671#2 265010598#4 265010598#5 23605011#1 266086999 62066585#1 353940886 682445857#1 682445857#2 354858498#1 285454834#1 998621643#1 998621643#2 171300277#1 171300277#2 257239019#2 27241669#1 27241669#2 27241669#3 27241669#4"/>
    </vehicle>
    <vehicle id="68" depart="68.00">
        <route edges="-171300268#3 171300268#3 4853035#4"/>
    </vehicle>
    <vehicle id="69" depart="69.00">
        <route edges="4853044#1 651637968#1 651637969 266086999 62066585#1 353940886 682445857#1 682445857#2 59254381#0 59254381#1 27241686#0 27241686#1 27241686#2 353940876#0 353940876#1 353940876#2 461203109#1 -333682049#17 -333682049#16 -333682049#15"/>
    </vehicle>
    <vehicle id="70" depart="70.00">
        <route edges="27241669#4 -27241669#4 -27241669#3 -27241669#2 -27241669#1 743545404#3 257239010#0 257239016#0 257239016#1 171300278#1 171300278#2 171300278#3 59254381#0 59254381#1 27241686#0 27241686#1 27241686#2 353940876#0 353940876#1 353940876#2 461203109#1 333682053#0 333682053#1 333682053#2 333682053#4"/>
    </vehicle>
    <vehicle id="71" depart="71.00">
        <route edges="171300278#2 171300278#3 59254388#0 354858502#0 354858502#1 266086958#0 266086958#1 266086958#2 266086964 266086965#1 266086974#0 266086974#1 265010575#2 651637968#0 651637968#1"/>
    </vehicle>
    <vehicle id="72" depart="72.00">
        <route edges="266086974#1 265010575#2 651637968#0 651637968#1 651637969 266086999 62066585#1 353940886 682445857#1 682445857#2 354858498#1 285454834#1 998621643#1 998621643#2 171300277#1 171300277#2 257239010#0 257239010#2 149122118#1 149122118#2 149122118#3"/>
    </vehicle>
    <vehicle id="73" depart="73.00">
        <route edges="353940876#2 461203109#1 333682043#1 333682043#3 333682043#4 333682043#5 333682043#6 333682043#7 1015181078#1 1015181078#3 461222309#2"/>
    </vehicle>
    <vehicle id="74" depart="74.00">
        <route edges="149122118#10 -149122118#10 -149122118#9 -149122118#8 -149122118#7 -149122118#6 -149122118#5 -149122118#4 -149122118#3 -149122118#2 -149122118#1 23350417#4 23350417#5 257239016#0 257239016#1 171300278#1 171300278#2 24059844"/>
    </vehicle>
    <vehicle id="75" depart="75.00">
        <route edges="998621643#2 171300268#0 171300268#1 171300268#2 171300268#3 4853035#4 405795843#1 405795843#2 582338491#0 582338491#1 582338491#2 987049867 405795839#0 405795839#1 651636564 405795840"/>
    </vehicle>
    <vehicle id="77" depart="77.00">
        <route edges="-333682049#12 333682049#12 333682049#13 333682049#14 333682049#15 333682049#16 333682049#17 461203108#1 333682046#1 333682046#2 353940877#0 353940877#1 -149835636#3 -149835636#2 -149835636#1 -149835636#0 149835636#0"/>
    </vehicle>
    <vehicle id="78" depart="78.00">
        <route edges="24835448 44837353#1 285454834#1 171300278#2 171300278#3 59254388#0 354858502#0 354858502#1"/>
    </vehicle>
    <vehicle id="79" depart="79.00">
        <route edges="149835645#10 -149835645#10 397862664#0 397862664#1 817912283#2 24835448 44837353#1 285454834#1 998621643#1 998621643#2 171300277#1 171300277#2 257239010#0 257239010#2 721120031#1 721120031#2 149122128#1 149122118#6 149122118#7 149122118#8 149122118#9"/>
    </vehicle>
    <vehicle id="80" depart="80.00">
        <route edges="-265010591 265010591 -265010601#1 -265010601#0 265010604 27241673#0 27241673#1 265010575#2 651637968#0 651637968#1 651637969 266086999 62066585#1 353940886 682445857#1 682445857#2 59254381#0 59254381#1 59254381#2 59254381#3 59254382#0 59254382#1 59254382#2 59254382#3 397862664#4"/>
    </vehicle>
    <vehicle id="81" depart="81.00">
        <route edges="149835645#10 -149835645#10 397862664#0 397862664#1 817912283#2 24835448 44837353#1 285454834#1 998621643#1 998621643#2 171300277#1 171300277#2 257239010#0 257239010#2 721120031#1 721120031#2 721120031#3"/>
    </vehicle>
    <vehicle id="82" depart="82.00">
        <route edges="582338491#0 582338491#1 582338491#2 987049867 266086964 266086965#1 266086967#0 266086967#1 266086967#2 27241668#7 27241668#8 27241668#9 27241668#10 -265010604 265010601#0 265010601#1 -265010591"/>
    </vehicle>
    <vehicle id="83" depart="83.00">
        <route edges="149835645#4 149835645#5 149835636#0 149835636#1 149835636#2 149835636#3 45177486 353940885 353940882#0 353940882#1 353940882#2 1015181076#0 1015181076#1 354858502#0 354858502#1 266086958#0 266086958#1 266086958#2 405795839#0 405795839#1 651636564 405795840"/>
    </vehicle>
    <vehicle id="84" depart="84.00">
        <route edges="149122118#6 -149122118#6 -149122118#5 -149122118#4 -149122118#3 -149122118#2 -149122118#1 23350417#4 23350417#5 257239016#0 257239016#1 171300278#1 171300278#2 171300278#3 59254381#0 59254381#1 27241686#0 27241686#1 27241686#2 353940876#0 353940876#1 353940876#2 461203109#1 -333682049#17 -333682049#16"/>
    </vehicle>
    <vehicle id="85" depart="85.00">
        <route edges="743545404#3 257239010#0 257239016#0 257239016#1 171300278#1 171300278#2 171300278#3 59254388#0 59254388#2 59254388#3 59254388#4 354858483#1 354858483#4 354858483#5 354858483#6 354858483#7"/>
    </vehicle>
    <vehicle id="87" depart="87.00">
        <route edges="550281563 550281566 986165964 45177385#1 265010598#1 265010598#4 265010598#5 266086974#0 266086974#1 266086974#2 333682044#1 265010574 265010581#0 265010581#1 62066584 62066589#0 62066589#1 354858483#1 -1015181077#7 -1015181077#6 -1015181077#5 -1015181077#4 1015181077#4"/>
    </vehicle>
    <vehicle id="88" depart="88.00">
        <route edges="-27241669#4 -27241669#3 -27241669#2 -27241669#1 682445848#2 4853035#3 4853035#4 405795843#1 405795843#2 582338491#0 582338491#1 582338491#2 987049867 405795842#0 405795842#1 405795842#2 405795842#3 405795841 406000909#1 266086980"/>
    </vehicle>
    <vehicle id="89" depart="89.00">
        <route edges="266086974#1 266086974#2 333682052#0 333682052#1 333682052#2 265010604 -27241668#10 -27241668#9 -27241668#8 -27241668#7 -27241668#6 -27241668#5 -27241668#4 -27241668#3 -27241668#2 -27241668#1 -27241668#0 27241668#0 27241668#1"/>
    </vehicle>
    <vehicle id="90" depart="90.00">
        <route edges="4853035#0 4853035#3 4853035#4 405795843#1 405795843#2 582338491#0 582338491#1 582338491#2 987049867 405795839#0 405795839#1 651636564 405795840"/>
    </vehicle>
    <vehicle id="91" depart="91.00">
        <route edges="986165964 45177385#1 265010598#1 265010598#4 265010598#5 23605011#1 266086999 62066585#1 353940886 682445857#1 682445857#2 354858498#1 285454834#1 998621643#1 998621643#2 171300277#1 171300277#2 257239011#0 257239011#1 -27241669#4"/>
    </vehicle>
    <vehicle id="92" depart="92.00">
        <route edges="265010620#1 -265010620#1 265010598#1 265010598#4 265010598#5 23605011#1 266086999 62066585#1 353940886 682445857#1 682445857#2 354858498#1 285454834#1 998621643#1 998621643#2 171300277#1 171300277#2 257239011#0 257239011#1"/>
    </vehicle>
    <vehicle id="93" depart="93.00">
        <route edges="582338491#0 582338491#1 582338491#2 62066585#1 353940886 682445857#1 682445857#2 59254381#0 59254381#1 27241686#0 27241686#1 353940877#1 -149835636#3 -149835636#2 -149835636#1 -149835636#0 149835645#6 149835645#7 149835645#8"/>
    </vehicle>
    <vehicle id="95" depart="95.00">
        <route edges="266086974#1 265010575#2 651637968#0 651637968#1 651637969 266086999 62066585#1 353940886 682445857#1 682445857#2 354858498#1 285454834#1 171300278#2 171300278#3"/>
    </vehicle>
    <vehicle id="96" depart="96.00">
        <route edges="149835645#8 397862664#0 397862664#1 817912283#2 400919425#0 400919425#1 400919425#2 400919425#3 400919425#4 353940885 353940882#0 353940882#1 353940882#2 1015181076#0 1015181076#1 354858502#0 354858502#1 266086958#0 266086958#1 266086958#2 266086964 651637969 266086971#1 266086971#2 986165964 810346011#1 810346011#2 810346011#3"/>
    </vehicle>
    <vehicle id="98" depart="98.00">
        <route edges="354858483#1 354858483#4 354858483#5 354858483#6 354858483#7 461203108#1 333682046#1 333682046#2 353940877#0 353940877#1 -149835636#3 -149835636#2 -149835636#1 -149835636#0 -149835645#5"/>
    </vehicle>
    <vehicle id="99" depart="99.00">
        <route edges="998621643#2 171300277#1 171300277#2 257239010#0 257239016#0 257239016#1 171300278#1 171300278#2 171300278#3 59254381#0 59254381#1 59254381#2 59254381#3 59254382#0 59254382#1 59254382#2"/>
    </vehicle>
    <vehicle id="100" depart="100.00">
        <route edges="849983642#1 820360609#1 820360609#2 405795843#2 582338491#0 582338491#1 582338491#2 987049867 266086964 651637969 266086971#1 266086971#2 986165964 810346011#1 810346011#2 810346011#3"/>
    </vehicle>
    <vehicle id="102" depart="102.00">
        <route edges="27241677#3 -27241677#3 -27241677#2 -27241677#1 -27241677#0 353940882#2 1015181076#0 1015181076#1 354858493 354858498#1 285454834#1 998621643#1 998621643#2 171300277#1 171300277#2 257239010#0 257239010#2 149122118#1 149122118#2 149122118#3 149122118#4"/>
    </vehicle>
    <vehicle id="103" depart="103.00">
        <route edges="265010616#0 486067307 265010585#0 265010598#1 265010598#4 265010598#5 23605011#1 266086999 62066585#1 353940886 682445857#1 682445857#2 59254381#0 59254381#1 59254381#2 59254381#3 59254382#0 59254382#1 59254382#2 59254382#3 -397862673#3 -397862673#2 -397862673#1 -397862673#0 -149835645#8"/>
    </vehicle>
    <vehicle id="104" depart="104.00">
        <route edges="265010588#4 265010598#1 265010598#4 265010598#5 266086974#0 266086974#1 266086974#2 333682045 987049868#0"/>
    </vehicle>
    <vehicle id="106" depart="106.00">
        <route edges="27241668#1 27241668#2 27241671#0 27241671#1 27241671#2 265010598#4 265010598#5 23605011#1 266086999 987049867 405795842#0 405795842#1 405795842#2 405795842#3 405795841 406000909#1 266086980"/>
    </vehicle>
    <vehicle id="107" depart="107.00">
        <route edges="820214408 951326913#0 998621643#1 998621643#2"/>
    </vehicle>
    <vehicle id="109" depart="109.00">
        <route edges="-397862673#7 -397862673#6 817912283#2 24835448 44837353#1 285454834#1 171300278#2 24059844"/>
    </vehicle>
    <vehicle id="110" depart="110.00">
        <route edges="849983642#1 820360609#1 820360609#2 405795843#2 582338491#0 582338491#1 582338491#2 62066585#1 353940886 682445857#1 682445857#2 354858498#1"/>
    </vehicle>
    <vehicle id="112" depart="112.00">
        <route edges="-149835645#8 -149835645#7 -149835645#6 149835636#0 149835636#1 149835636#2 149835636#3 45177486 353940885 353940882#0 353940882#1 353940882#2 1015181076#0 1015181076#1 354858502#0 354858502#1"/>
    </vehicle>
    <vehicle id="113" depart="113.00">
        <route edges="333682042#2 333682042#3 333682045 987049868#0 987049868#1 23605011#1 266086999 62066585#1"/>
    </vehicle>
    <vehicle id="114" depart="114.00">
        <route edges="-397862673#7 -397862673#6 817912283#2 400919425#0 400919425#1 400919425#2 400919425#3 400919425#4 353940885 353940882#0 353940882#1 353940882#2 1015181076#0 1015181076#1 354858502#0 354858502#1 266086958#0 266086958#1 266086958#2 266086964 651637969 266086971#1 266086971#2 986165964 810346011#1 4848752#0 4848752#1 4848752#2 820360604#0 820360604#1"/>
    </vehicle>
    <vehicle id="115" depart="115.00">
        <route edges="-27241668#1 -27241668#0 -265010620#2 -265010620#1 265010598#1 265010598#4 265010598#5 23605011#1 266086999 62066585#1 353940886 682445857#1 682445857#2 59254381#0 59254381#1 27241686#0 27241686#1 27241686#2 353940885 353940882#0 353940882#1 353940882#2 1015181076#0"/>
    </vehicle>
    <vehicle id="116" depart="116.00">
        <route edges="397862664#4 -149835645#11 -149835645#10 -149835645#8 -149835645#7 -149835645#6 149835636#0 149835636#1 149835636#2 149835636#3 45177486 353940885 353940882#0 353940882#1 353940882#2 1015181076#0 1015181076#1 354858502#0 354858502#1 266086958#0 266086958#1 266086958#2 405795842#0 405795842#1 405795842#2 405795842#3 405795841"/>
    </vehicle>
    <vehicle id="117" depart="117.00">
        <route edges="149835645#11 -149835645#11 -149835645#10 -149835645#8 -149835645#7 -149835645#6 149835636#0 149835636#1 149835636#2 149835636#3 45177486 353940876#0 353940876#1 353940876#2 461203109#1 333682043#1 -27241676#1 -27241676#0 -333682049#13 -333682049#12 -333682049#11 -333682049#10 -333682049#9 -333682049#8 -333682049#7 -333682049#5 -333682049#1"/>
    </vehicle>
    <vehicle id="118" depart="118.00">
        <route edges="59254388#4 354858483#1 354858483#4 354858483#5 354858483#6 354858483#7 461203108#1 333682046#1 333682046#2 353940877#0 353940877#1 -149835636#3 -149835636#2 -149835636#1 -149835636#0 149835645#6 149835645#7"/>
    </vehicle>
    <vehicle id="119" depart="119.00">
        <route edges="397862664#4"/>
    </vehicle>
    <vehicle id="120" depart="120.00">
        <route edges="266086971#2 986165964 45177385#1 265010598#1 265010598#4 265010598#5 23605011#1 266086999 62066585#1 353940886 682445857#1 682445857#2 354858498#1"/>
    </vehicle>
    <vehicle id="121" depart="121.00">