<?xml version="1.0" encoding="UTF-8"?>

<!-- generated on 2022-02-07 18:04:05 by Eclipse SUMO netedit Version 1.9.2
<configuration xmlns:xsi="http://www.w3.org/2001/XMLSchema-instance" xsi:noNamespaceSchemaLocation="http://sumo.dlr.de/xsd/netconvertConfiguration.xsd">

    <input>
        <sumo-net-file value="C:\Users\OTSLCPS004\Sumo\2022-01-28-10-41-57-odaiba\osm.net.xml"/>
    </input>

    <output>
        <output-file value="C:\Users\OTSLCPS004\Sumo\2022-01-28-10-41-57-odaiba\osm.net.xml"/>
        <output.street-names value="true"/>
    </output>

    <processing>
        <geometry.min-radius.fix.railways value="false"/>
        <geometry.max-grade.fix value="false"/>
        <offset.disable-normalization value="true"/>
        <lefthand value="true"/>
    </processing>

    <junctions>
        <no-internal-links value="false"/>
        <no-turnarounds value="true"/>
        <junctions.corner-detail value="5"/>
        <junctions.limit-turn-speed value="5.5"/>
        <rectangular-lane-cut value="false"/>
    </junctions>

    <pedestrian>
        <walkingareas value="true"/>
    </pedestrian>

    <netedit>
        <route-files value="C:\Users\OTSLCPS004\Sumo\2022-01-28-10-41-57-odaiba\tmc.rou.xml"/>
    </netedit>

    <report>
        <aggregate-warnings value="5"/>
    </report>

</configuration>
-->

<routes xmlns:xsi="http://www.w3.org/2001/XMLSchema-instance" xsi:noNamespaceSchemaLocation="http://sumo.dlr.de/xsd/routes_file.xsd">
    <trip id="vehicle_0" depart="0.00" color="red" from="265010598#1" to="682445838" via="265010598#4 266086974#1 266086974#2 333682044#1 265010581#0 62066589#1 461203108#1 333682046#1 333682046#2 353940882#0 353940882#1 353940882#2 1015181076#0 354858498#1 285454834#1"/>
    <trip id="vehicle_1" depart="0.00" color="green" from="820214408" to="4853038#1" via="951326913#0 171300278#2 353940876#1 353940876#2 461203109#1 333682043#1 333682043#3 333682043#4 1015181078#1 1015181078#3 333682042#3 333682045 987049868#0 265010588#1 265010588#4"/>
    
	<trip id="vehicle_2" depart="30.00" color="red" from="265010598#1" to="682445838" via="265010598#4 266086974#1 266086974#2 333682044#1 265010581#0 62066589#1 461203108#1 333682046#1 333682046#2 353940882#0 353940882#1 353940882#2 1015181076#0 354858498#1 285454834#1"/>
    <trip id="vehicle_3" depart="30.00" color="green" from="820214408" to="4853038#1" via="951326913#0 171300278#2 353940876#1 353940876#2 461203109#1 333682043#1 333682043#3 333682043#4 1015181078#1 1015181078#3 333682042#3 333682045 987049868#0 265010588#1 265010588#4"/>

    <trip id="vehicle_4" depart="60.00" color="red" from="265010598#1" to="682445838" via="265010598#4 266086974#1 266086974#2 333682044#1 265010581#0 62066589#1 461203108#1 333682046#1 333682046#2 353940882#0 353940882#1 353940882#2 1015181076#0 354858498#1 285454834#1"/>
    <trip id="vehicle_5" depart="60.00" color="green" from="820214408" to="4853038#1" via="951326913#0 171300278#2 353940876#1 353940876#2 461203109#1 333682043#1 333682043#3 333682043#4 1015181078#1 1015181078#3 333682042#3 333682045 987049868#0 265010588#1 265010588#4"/>

    <trip id="vehicle_6" depart="90.00" color="red" from="265010598#1" to="682445838" via="265010598#4 266086974#1 266086974#2 333682044#1 265010581#0 62066589#1 461203108#1 333682046#1 333682046#2 353940882#0 353940882#1 353940882#2 1015181076#0 354858498#1 285454834#1"/>
    <trip id="vehicle_7" depart="90.00" color="green" from="820214408" to="4853038#1" via="951326913#0 171300278#2 353940876#1 353940876#2 461203109#1 333682043#1 333682043#3 333682043#4 1015181078#1 1015181078#3 333682042#3 333682045 987049868#0 265010588#1 265010588#4"/>

    <trip id="vehicle_8" depart="120.00" color="red" from="265010598#1" to="682445838" via="265010598#4 266086974#1 266086974#2 333682044#1 265010581#0 62066589#1 461203108#1 333682046#1 333682046#2 353940882#0 353940882#1 353940882#2 1015181076#0 354858498#1 285454834#1"/>
    <trip id="vehicle_9" depart="120.00" color="green" from="820214408" to="4853038#1" via="951326913#0 171300278#2 353940876#1 353940876#2 461203109#1 333682043#1 333682043#3 333682043#4 1015181078#1 1015181078#3 333682042#3 333682045 987049868#0 265010588#1 265010588#4"/>

    <trip id="vehicle_10" depart="150.00" color="red" from="265010598#1" to="682445838" via="265010598#4 266086974#1 266086974#2 333682044#1 265010581#0 62066589#1 461203108#1 333682046#1 333682046#2 353940882#0 353940882#1 353940882#2 1015181076#0 354858498#1 285454834#1"/>
    <trip id="vehicle_11" depart="150.00" color="green" from="820214408" to="4853038#1" via="951326913#0 171300278#2 353940876#1 353940876#2 461203109#1 333682043#1 333682043#3 333682043#4 1015181078#1 1015181078#3 333682042#3 333682045 987049868#0 265010588#1 265010588#4"/>

    <trip id="vehicle_12" depart="180.00" color="red" from="265010598#1" to="682445838" via="265010598#4 266086974#1 266086974#2 333682044#1 265010581#0 62066589#1 461203108#1 333682046#1 333682046#2 353940882#0 353940882#1 353940882#2 1015181076#0 354858498#1 285454834#1"/>
    <trip id="vehicle_13" depart="180.00" color="green" from="820214408" to="4853038#1" via="951326913#0 171300278#2 353940876#1 353940876#2 461203109#1 333682043#1 333682043#3 333682043#4 1015181078#1 1015181078#3 333682042#3 333682045 987049868#0 265010588#1 265010588#4"/>

    <trip id="vehicle_14" depart="210.00" color="red" from="265010598#1" to="682445838" via="265010598#4 266086974#1 266086974#2 333682044#1 265010581#0 62066589#1 461203108#1 333682046#1 333682046#2 353940882#0 353940882#1 353940882#2 1015181076#0 354858498#1 285454834#1"/>
    <trip id="vehicle_15" depart="210.00" color="green" from="820214408" to="4853038#1" via="951326913#0 171300278#2 353940876#1 353940876#2 461203109#1 333682043#1 333682043#3 333682043#4 1015181078#1 1015181078#3 333682042#3 333682045 987049868#0 265010588#1 265010588#4"/>

    <trip id="vehicle_16" depart="240.00" color="red" from="265010598#1" to="682445838" via="265010598#4 266086974#1 266086974#2 333682044#1 265010581#0 62066589#1 461203108#1 333682046#1 333682046#2 353940882#0 353940882#1 353940882#2 1015181076#0 354858498#1 285454834#1"/>
    <trip id="vehicle_17" depart="240.00" color="green" from="820214408" to="4853038#1" via="951326913#0 171300278#2 353940876#1 353940876#2 461203109#1 333682043#1 333682043#3 333682043#4 1015181078#1 1015181078#3 333682042#3 333682045 987049868#0 265010588#1 265010588#4"/>

    <trip id="vehicle_18" depart="270.00" color="red" from="265010598#1" to="682445838" via="265010598#4 266086974#1 266086974#2 333682044#1 265010581#0 62066589#1 461203108#1 333682046#1 333682046#2 353940882#0 353940882#1 353940882#2 1015181076#0 354858498#1 285454834#1"/>
    <trip id="vehicle_19" depart="270.00" color="green" from="820214408" to="4853038#1" via="951326913#0 171300278#2 353940876#1 353940876#2 461203109#1 333682043#1 333682043#3 333682043#4 1015181078#1 1015181078#3 333682042#3 333682045 987049868#0 265010588#1 265010588#4"/>

    <trip id="vehicle_20" depart="300.00" color="red" from="265010598#1" to="682445838" via="265010598#4 266086974#1 266086974#2 333682044#1 265010581#0 62066589#1 461203108#1 333682046#1 333682046#2 353940882#0 353940882#1 353940882#2 1015181076#0 354858498#1 285454834#1"/>
    <trip id="vehicle_21" depart="300.00" color="green" from="820214408" to="4853038#1" via="951326913#0 171300278#2 353940876#1 353940876#2 461203109#1 333682043#1 333682043#3 333682043#4 1015181078#1 1015181078#3 333682042#3 333682045 987049868#0 265010588#1 265010588#4"/>

    <trip id="vehicle_22" depart="330.00" color="red" from="265010598#1" to="682445838" via="265010598#4 266086974#1 266086974#2 333682044#1 265010581#0 62066589#1 461203108#1 333682046#1 333682046#2 353940882#0 353940882#1 353940882#2 1015181076#0 354858498#1 285454834#1"/>
    <trip id="vehicle_23" depart="330.00" color="green" from="820214408" to="4853038#1" via="951326913#0 171300278#2 353940876#1 353940876#2 461203109#1 333682043#1 333682043#3 333682043#4 1015181078#1 1015181078#3 333682042#3 333682045 987049868#0 265010588#1 265010588#4"/>

    <trip id="vehicle_24" depart="360.00" color="red" from="265010598#1" to="682445838" via="265010598#4 266086974#1 266086974#2 333682044#1 265010581#0 62066589#1 461203108#1 333682046#1 333682046#2 353940882#0 353940882#1 353940882#2 1015181076#0 354858498#1 285454834#1"/>
    <trip id="vehicle_25" depart="360.00" color="green" from="820214408" to="4853038#1" via="951326913#0 171300278#2 353940876#1 353940876#2 461203109#1 333682043#1 333682043#3 333682043#4 1015181078#1 1015181078#3 333682042#3 333682045 987049868#0 265010588#1 265010588#4"/>

    <trip id="vehicle_26" depart="390.00" color="red" from="265010598#1" to="682445838" via="265010598#4 266086974#1 266086974#2 333682044#1 265010581#0 62066589#1 461203108#1 333682046#1 333682046#2 353940882#0 353940882#1 353940882#2 1015181076#0 354858498#1 285454834#1"/>
    <trip id="vehicle_27" depart="390.00" color="green" from="820214408" to="4853038#1" via="951326913#0 171300278#2 353940876#1 353940876#2 461203109#1 333682043#1 333682043#3 333682043#4 1015181078#1 1015181078#3 333682042#3 333682045 987049868#0 265010588#1 265010588#4"/>

    <trip id="vehicle_28" depart="420.00" color="red" from="265010598#1" to="682445838" via="265010598#4 266086974#1 266086974#2 333682044#1 265010581#0 62066589#1 461203108#1 333682046#1 333682046#2 353940882#0 353940882#1 353940882#2 1015181076#0 354858498#1 285454834#1"/>
    <trip id="vehicle_29" depart="420.00" color="green" from="820214408" to="4853038#1" via="951326913#0 171300278#2 353940876#1 353940876#2 461203109#1 333682043#1 333682043#3 333682043#4 1015181078#1 1015181078#3 333682042#3 333682045 987049868#0 265010588#1 265010588#4"/>

    <trip id="vehicle_30" depart="450.00" color="red" from="265010598#1" to="682445838" via="265010598#4 266086974#1 266086974#2 333682044#1 265010581#0 62066589#1 461203108#1 333682046#1 333682046#2 353940882#0 353940882#1 353940882#2 1015181076#0 354858498#1 285454834#1"/>
    <trip id="vehicle_31" depart="450.00" color="green" from="820214408" to="4853038#1" via="951326913#0 171300278#2 353940876#1 353940876#2 461203109#1 333682043#1 333682043#3 333682043#4 1015181078#1 1015181078#3 333682042#3 333682045 987049868#0 265010588#1 265010588#4"/>

    <trip id="vehicle_32" depart="480.00" color="red" from="265010598#1" to="682445838" via="265010598#4 266086974#1 266086974#2 333682044#1 265010581#0 62066589#1 461203108#1 333682046#1 333682046#2 353940882#0 353940882#1 353940882#2 1015181076#0 354858498#1 285454834#1"/>
    <trip id="vehicle_33" depart="480.00" color="green" from="820214408" to="4853038#1" via="951326913#0 171300278#2 353940876#1 353940876#2 461203109#1 333682043#1 333682043#3 333682043#4 1015181078#1 1015181078#3 333682042#3 333682045 987049868#0 265010588#1 265010588#4"/>

    <trip id="vehicle_34" depart="510.00" color="red" from="265010598#1" to="682445838" via="265010598#4 266086974#1 266086974#2 333682044#1 265010581#0 62066589#1 461203108#1 333682046#1 333682046#2 353940882#0 353940882#1 353940882#2 1015181076#0 354858498#1 285454834#1"/>
    <trip id="vehicle_35" depart="510.00" color="green" from="820214408" to="4853038#1" via="951326913#0 171300278#2 353940876#1 353940876#2 461203109#1 333682043#1 333682043#3 333682043#4 1015181078#1 1015181078#3 333682042#3 333682045 987049868#0 265010588#1 265010588#4"/>

    <trip id="vehicle_36" depart="540.00" color="red" from="265010598#1" to="682445838" via="265010598#4 266086974#1 266086974#2 333682044#1 265010581#0 62066589#1 461203108#1 333682046#1 333682046#2 353940882#0 353940882#1 353940882#2 1015181076#0 354858498#1 285454834#1"/>
    <trip id="vehicle_37" depart="540.00" color="green" from="820214408" to="4853038#1" via="951326913#0 171300278#2 353940876#1 353940876#2 461203109#1 333682043#1 333682043#3 333682043#4 1015181078#1 1015181078#3 333682042#3 333682045 987049868#0 265010588#1 265010588#4"/>

    <trip id="vehicle_38" depart="570.00" color="red" from="265010598#1" to="682445838" via="265010598#4 266086974#1 266086974#2 333682044#1 265010581#0 62066589#1 461203108#1 333682046#1 333682046#2 353940882#0 353940882#1 353940882#2 1015181076#0 354858498#1 285454834#1"/>
    <trip id="vehicle_39" depart="570.00" color="green" from="820214408" to="4853038#1" via="951326913#0 171300278#2 353940876#1 353940876#2 461203109#1 333682043#1 333682043#3 333682043#4 1015181078#1 1015181078#3 333682042#3 333682045 987049868#0 265010588#1 265010588#4"/>

    <trip id="vehicle_40" depart="600.00" color="red" from="265010598#1" to="682445838" via="265010598#4 266086974#1 266086974#2 333682044#1 265010581#0 62066589#1 461203108#1 333682046#1 333682046#2 353940882#0 353940882#1 353940882#2 1015181076#0 354858498#1 285454834#1"/>
    <trip id="vehicle_41" depart="600.00" color="green" from="820214408" to="4853038#1" via="951326913#0 171300278#2 353940876#1 353940876#2 461203109#1 333682043#1 333682043#3 333682043#4 1015181078#1 1015181078#3 333682042#3 333682045 987049868#0 265010588#1 265010588#4"/>

    <trip id="vehicle_42" depart="630.00" color="red" from="265010598#1" to="682445838" via="265010598#4 266086974#1 266086974#2 333682044#1 265010581#0 62066589#1 461203108#1 333682046#1 333682046#2 353940882#0 353940882#1 353940882#2 1015181076#0 354858498#1 285454834#1"/>
    <trip id="vehicle_43" depart="630.00" color="green" from="820214408" to="4853038#1" via="951326913#0 171300278#2 353940876#1 353940876#2 461203109#1 333682043#1 333682043#3 333682043#4 1015181078#1 1015181078#3 333682042#3 333682045 987049868#0 265010588#1 265010588#4"/>

    <trip id="vehicle_44" depart="660.00" color="red" from="265010598#1" to="682445838" via="265010598#4 266086974#1 266086974#2 333682044#1 265010581#0 62066589#1 461203108#1 333682046#1 333682046#2 353940882#0 353940882#1 353940882#2 1015181076#0 354858498#1 285454834#1"/>
    <trip id="vehicle_45" depart="660.00" color="green" from="820214408" to="4853038#1" via="951326913#0 171300278#2 353940876#1 353940876#2 461203109#1 333682043#1 333682043#3 333682043#4 1015181078#1 1015181078#3 333682042#3 333682045 987049868#0 265010588#1 265010588#4"/>

    <trip id="vehicle_46" depart="690.00" color="red" from="265010598#1" to="682445838" via="265010598#4 266086974#1 266086974#2 333682044#1 265010581#0 62066589#1 461203108#1 333682046#1 333682046#2 353940882#0 353940882#1 353940882#2 1015181076#0 354858498#1 285454834#1"/>
    <trip id="vehicle_47" depart="690.00" color="green" from="820214408" to="4853038#1" via="951326913#0 171300278#2 353940876#1 353940876#2 461203109#1 333682043#1 333682043#3 333682043#4 1015181078#1 1015181078#3 333682042#3 333682045 987049868#0 265010588#1 265010588#4"/>

    <trip id="vehicle_48" depart="720.00" color="red" from="265010598#1" to="682445838" via="265010598#4 266086974#1 266086974#2 333682044#1 265010581#0 62066589#1 461203108#1 333682046#1 333682046#2 353940882#0 353940882#1 353940882#2 1015181076#0 354858498#1 285454834#1"/>
    <trip id="vehicle_49" depart="720.00" color="green" from="820214408" to="4853038#1" via="951326913#0 171300278#2 353940876#1 353940876#2 461203109#1 333682043#1 333682043#3 333682043#4 1015181078#1 1015181078#3 333682042#3 333682045 987049868#0 265010588#1 265010588#4"/>

    <trip id="vehicle_50" depart="750.00" color="red" from="265010598#1" to="682445838" via="265010598#4 266086974#1 266086974#2 333682044#1 265010581#0 62066589#1 461203108#1 333682046#1 333682046#2 353940882#0 353940882#1 353940882#2 1015181076#0 354858498#1 285454834#1"/>
    <trip id="vehicle_51" depart="750.00" color="green" from="820214408" to="4853038#1" via="951326913#0 171300278#2 353940876#1 353940876#2 461203109#1 333682043#1 333682043#3 333682043#4 1015181078#1 1015181078#3 333682042#3 333682045 987049868#0 265010588#1 265010588#4"/>

    <trip id="vehicle_52" depart="780.00" color="red" from="265010598#1" to="682445838" via="265010598#4 266086974#1 266086974#2 333682044#1 265010581#0 62066589#1 461203108#1 333682046#1 333682046#2 353940882#0 353940882#1 353940882#2 1015181076#0 354858498#1 285454834#1"/>
    <trip id="vehicle_53" depart="780.00" color="green" from="820214408" to="4853038#1" via="951326913#0 171300278#2 353940876#1 353940876#2 461203109#1 333682043#1 333682043#3 333682043#4 1015181078#1 1015181078#3 333682042#3 333682045 987049868#0 265010588#1 265010588#4"/>

    <trip id="vehicle_54" depart="810.00" color="red" from="265010598#1" to="682445838" via="265010598#4 266086974#1 266086974#2 333682044#1 265010581#0 62066589#1 461203108#1 333682046#1 333682046#2 353940882#0 353940882#1 353940882#2 1015181076#0 354858498#1 285454834#1"/>
    <trip id="vehicle_55" depart="810.00" color="green" from="820214408" to="4853038#1" via="951326913#0 171300278#2 353940876#1 353940876#2 461203109#1 333682043#1 333682043#3 333682043#4 1015181078#1 1015181078#3 333682042#3 333682045 987049868#0 265010588#1 265010588#4"/>

    <trip id="vehicle_56" depart="840.00" color="red" from="265010598#1" to="682445838" via="265010598#4 266086974#1 266086974#2 333682044#1 265010581#0 62066589#1 461203108#1 333682046#1 333682046#2 353940882#0 353940882#1 353940882#2 1015181076#0 354858498#1 285454834#1"/>
    <trip id="vehicle_57" depart="840.00" color="green" from="820214408" to="4853038#1" via="951326913#0 171300278#2 353940876#1 353940876#2 461203109#1 333682043#1 333682043#3 333682043#4 1015181078#1 1015181078#3 333682042#3 333682045 987049868#0 265010588#1 265010588#4"/>

    <trip id="vehicle_58" depart="870.00" color="red" from="265010598#1" to="682445838" via="265010598#4 266086974#1 266086974#2 333682044#1 265010581#0 62066589#1 461203108#1 333682046#1 333682046#2 353940882#0 353940882#1 353940882#2 1015181076#0 354858498#1 285454834#1"/>
    <trip id="vehicle_59" depart="870.00" color="green" from="820214408" to="4853038#1" via="951326913#0 171300278#2 353940876#1 353940876#2 461203109#1 333682043#1 333682043#3 333682043#4 1015181078#1 1015181078#3 333682042#3 333682045 987049868#0 265010588#1 265010588#4"/>

    <trip id="vehicle_60" depart="900.00" color="red" from="265010598#1" to="682445838" via="265010598#4 266086974#1 266086974#2 333682044#1 265010581#0 62066589#1 461203108#1 333682046#1 333682046#2 353940882#0 353940882#1 353940882#2 1015181076#0 354858498#1 285454834#1"/>
    <trip id="vehicle_61" depart="900.00" color="green" from="820214408" to="4853038#1" via="951326913#0 171300278#2 353940876#1 353940876#2 461203109#1 333682043#1 333682043#3 333682043#4 1015181078#1 1015181078#3 333682042#3 333682045 987049868#0 265010588#1 265010588#4"/>

    <trip id="vehicle_62" depart="930.00" color="red" from="265010598#1" to="682445838" via="265010598#4 266086974#1 266086974#2 333682044#1 265010581#0 62066589#1 461203108#1 333682046#1 333682046#2 353940882#0 353940882#1 353940882#2 1015181076#0 354858498#1 285454834#1"/>
    <trip id="vehicle_63" depart="930.00" color="green" from="820214408" to="4853038#1" via="951326913#0 171300278#2 353940876#1 353940876#2 461203109#1 333682043#1 333682043#3 333682043#4 1015181078#1 1015181078#3 333682042#3 333682045 987049868#0 265010588#1 265010588#4"/>

    <trip id="vehicle_64" depart="960.00" color="red" from="265010598#1" to="682445838" via="265010598#4 266086974#1 266086974#2 333682044#1 265010581#0 62066589#1 461203108#1 333682046#1 333682046#2 353940882#0 353940882#1 353940882#2 1015181076#0 354858498#1 285454834#1"/>
    <trip id="vehicle_65" depart="960.00" color="green" from="820214408" to="4853038#1" via="951326913#0 171300278#2 353940876#1 353940876#2 461203109#1 333682043#1 333682043#3 333682043#4 1015181078#1 1015181078#3 333682042#3 333682045 987049868#0 265010588#1 265010588#4"/>

    <trip id="vehicle_66" depart="990.00" color="red" from="265010598#1" to="682445838" via="265010598#4 266086974#1 266086974#2 333682044#1 265010581#0 62066589#1 461203108#1 333682046#1 333682046#2 353940882#0 353940882#1 353940882#2 1015181076#0 354858498#1 285454834#1"/>
    <trip id="vehicle_67" depart="990.00" color="green" from="820214408" to="4853038#1" via="951326913#0 171300278#2 353940876#1 353940876#2 461203109#1 333682043#1 333682043#3 333682043#4 1015181078#1 1015181078#3 333682042#3 333682045 987049868#0 265010588#1 265010588#4"/>

    <trip id="vehicle_68" depart="1020.00" color="red" from="265010598#1" to="682445838" via="265010598#4 266086974#1 266086974#2 333682044#1 265010581#0 62066589#1 461203108#1 333682046#1 333682046#2 353940882#0 353940882#1 353940882#2 1015181076#0 354858498#1 285454834#1"/>
    <trip id="vehicle_69" depart="1020.00" color="green" from="820214408" to="4853038#1" via="951326913#0 171300278#2 353940876#1 353940876#2 461203109#1 333682043#1 333682043#3 333682043#4 1015181078#1 1015181078#3 333682042#3 333682045 987049868#0 265010588#1 265010588#4"/>

    <trip id="vehicle_70" depart="1050.00" color="red" from="265010598#1" to="682445838" via="265010598#4 266086974#1 266086974#2 333682044#1 265010581#0 62066589#1 461203108#1 333682046#1 333682046#2 353940882#0 353940882#1 353940882#2 1015181076#0 354858498#1 285454834#1"/>
    <trip id="vehicle_71" depart="1050.00" color="green" from="820214408" to="4853038#1" via="951326913#0 171300278#2 353940876#1 353940876#2 461203109#1 333682043#1 333682043#3 333682043#4 1015181078#1 1015181078#3 333682042#3 333682045 987049868#0 265010588#1 265010588#4"/>

    <trip id="vehicle_72" depart="1080.00" color="red" from="265010598#1" to="682445838" via="265010598#4 266086974#1 266086974#2 333682044#1 265010581#0 62066589#1 461203108#1 333682046#1 333682046#2 353940882#0 353940882#1 353940882#2 1015181076#0 354858498#1 285454834#1"/>
    <trip id="vehicle_73" depart="1080.00" color="green" from="820214408" to="4853038#1" via="951326913#0 171300278#2 353940876#1 353940876#2 461203109#1 333682043#1 333682043#3 333682043#4 1015181078#1 1015181078#3 333682042#3 333682045 987049868#0 265010588#1 265010588#4"/>

    <trip id="vehicle_74" depart="1110.00" color="red" from="265010598#1" to="682445838" via="265010598#4 266086974#1 266086974#2 333682044#1 265010581#0 62066589#1 461203108#1 333682046#1 333682046#2 353940882#0 353940882#1 353940882#2 1015181076#0 354858498#1 285454834#1"/>
    <trip id="vehicle_75" depart="1110.00" color="green" from="820214408" to="4853038#1" via="951326913#0 171300278#2 353940876#1 353940876#2 461203109#1 333682043#1 333682043#3 333682043#4 1015181078#1 1015181078#3 333682042#3 333682045 987049868#0 265010588#1 265010588#4"/>

    <trip id="vehicle_76" depart="1140.00" color="red" from="265010598#1" to="682445838" via="265010598#4 266086974#1 266086974#2 333682044#1 265010581#0 62066589#1 461203108#1 333682046#1 333682046#2 353940882#0 353940882#1 353940882#2 1015181076#0 354858498#1 285454834#1"/>
    <trip id="vehicle_77" depart="1140.00" color="green" from="820214408" to="4853038#1" via="951326913#0 171300278#2 353940876#1 353940876#2 461203109#1 333682043#1 333682043#3 333682043#4 1015181078#1 1015181078#3 333682042#3 333682045 987049868#0 265010588#1 265010588#4"/>

    <trip id="vehicle_78" depart="1170.00" color="red" from="265010598#1" to="682445838" via="265010598#4 266086974#1 266086974#2 333682044#1 265010581#0 62066589#1 461203108#1 333682046#1 333682046#2 353940882#0 353940882#1 353940882#2 1015181076#0 354858498#1 285454834#1"/>
    <trip id="vehicle_79" depart="1170.00" color="green" from="820214408" to="4853038#1" via="951326913#0 171300278#2 353940876#1 353940876#2 461203109#1 333682043#1 333682043#3 333682043#4 1015181078#1 1015181078#3 333682042#3 333682045 987049868#0 265010588#1 265010588#4"/>

    <trip id="vehicle_80" depart="1200.00" color="red" from="265010598#1" to="682445838" via="265010598#4 266086974#1 266086974#2 333682044#1 265010581#0 62066589#1 461203108#1 333682046#1 333682046#2 353940882#0 353940882#1 353940882#2 1015181076#0 354858498#1 285454834#1"/>
    <trip id="vehicle_81" depart="1200.00" color="green" from="820214408" to="4853038#1" via="951326913#0 171300278#2 353940876#1 353940876#2 461203109#1 333682043#1 333682043#3 333682043#4 1015181078#1 1015181078#3 333682042#3 333682045 987049868#0 265010588#1 265010588#4"/>

    <trip id="vehicle_82" depart="1230.00" color="red" from="265010598#1" to="682445838" via="265010598#4 266086974#1 266086974#2 333682044#1 265010581#0 62066589#1 461203108#1 333682046#1 333682046#2 353940882#0 353940882#1 353940882#2 1015181076#0 354858498#1 285454834#1"/>
    <trip id="vehicle_83" depart="1230.00" color="green" from="820214408" to="4853038#1" via="951326913#0 171300278#2 353940876#1 353940876#2 461203109#1 333682043#1 333682043#3 333682043#4 1015181078#1 1015181078#3 333682042#3 333682045 987049868#0 265010588#1 265010588#4"/>

    <trip id="vehicle_84" depart="1260.00" color="red" from="265010598#1" to="682445838" via="265010598#4 266086974#1 266086974#2 333682044#1 265010581#0 62066589#1 461203108#1 333682046#1 333682046#2 353940882#0 353940882#1 353940882#2 1015181076#0 354858498#1 285454834#1"/>
    <trip id="vehicle_85" depart="1260.00" color="green" from="820214408" to="4853038#1" via="951326913#0 171300278#2 353940876#1 353940876#2 461203109#1 333682043#1 333682043#3 333682043#4 1015181078#1 1015181078#3 333682042#3 333682045 987049868#0 265010588#1 265010588#4"/>

    <trip id="vehicle_86" depart="1290.00" color="red" from="265010598#1" to="682445838" via="265010598#4 266086974#1 266086974#2 333682044#1 265010581#0 62066589#1 461203108#1 333682046#1 333682046#2 353940882#0 353940882#1 353940882#2 1015181076#0 354858498#1 285454834#1"/>
    <trip id="vehicle_87" depart="1290.00" color="green" from="820214408" to="4853038#1" via="951326913#0 171300278#2 353940876#1 353940876#2 461203109#1 333682043#1 333682043#3 333682043#4 1015181078#1 1015181078#3 333682042#3 333682045 987049868#0 265010588#1 265010588#4"/>

    <trip id="vehicle_88" depart="1320.00" color="red" from="265010598#1" to="682445838" via="265010598#4 266086974#1 266086974#2 333682044#1 265010581#0 62066589#1 461203108#1 333682046#1 333682046#2 353940882#0 353940882#1 353940882#2 1015181076#0 354858498#1 285454834#1"/>
    <trip id="vehicle_89" depart="1320.00" color="green" from="820214408" to="4853038#1" via="951326913#0 171300278#2 353940876#1 353940876#2 461203109#1 333682043#1 333682043#3 333682043#4 1015181078#1 1015181078#3 333682042#3 333682045 987049868#0 265010588#1 265010588#4"/>

    <trip id="vehicle_90" depart="1350.00" color="red" from="265010598#1" to="682445838" via="265010598#4 266086974#1 266086974#2 333682044#1 265010581#0 62066589#1 461203108#1 333682046#1 333682046#2 353940882#0 353940882#1 353940882#2 1015181076#0 354858498#1 285454834#1"/>
    <trip id="vehicle_91" depart="1350.00" color="green" from="820214408" to="4853038#1" via="951326913#0 171300278#2 353940876#1 353940876#2 461203109#1 333682043#1 333682043#3 333682043#4 1015181078#1 1015181078#3 333682042#3 333682045 987049868#0 265010588#1 265010588#4"/>

    <trip id="vehicle_92" depart="1380.00" color="red" from="265010598#1" to="682445838" via="265010598#4 266086974#1 266086974#2 333682044#1 265010581#0 62066589#1 461203108#1 333682046#1 333682046#2 353940882#0 353940882#1 353940882#2 1015181076#0 354858498#1 285454834#1"/>
    <trip id="vehicle_93" depart="1380.00" color="green" from="820214408" to="4853038#1" via="951326913#0 171300278#2 353940876#1 353940876#2 461203109#1 333682043#1 333682043#3 333682043#4 1015181078#1 1015181078#3 333682042#3 333682045 987049868#0 265010588#1 265010588#4"/>

    <trip id="vehicle_94" depart="1410.00" color="red" from="265010598#1" to="682445838" via="265010598#4 266086974#1 266086974#2 333682044#1 265010581#0 62066589#1 461203108#1 333682046#1 333682046#2 353940882#0 353940882#1 353940882#2 1015181076#0 354858498#1 285454834#1"/>
    <trip id="vehicle_95" depart="1410.00" color="green" from="820214408" to="4853038#1" via="951326913#0 171300278#2 353940876#1 353940876#2 461203109#1 333682043#1 333682043#3 333682043#4 1015181078#1 1015181078#3 333682042#3 333682045 987049868#0 265010588#1 265010588#4"/>

    <trip id="vehicle_96" depart="1440.00" color="red" from="265010598#1" to="682445838" via="265010598#4 266086974#1 266086974#2 333682044#1 265010581#0 62066589#1 461203108#1 333682046#1 333682046#2 353940882#0 353940882#1 353940882#2 1015181076#0 354858498#1 285454834#1"/>
    <trip id="vehicle_97" depart="1440.00" color="green" from="820214408" to="4853038#1" via="951326913#0 171300278#2 353940876#1 353940876#2 461203109#1 333682043#1 333682043#3 333682043#4 1015181078#1 1015181078#3 333682042#3 333682045 987049868#0 265010588#1 265010588#4"/>

    <trip id="vehicle_98" depart="1470.00" color="red" from="265010598#1" to="682445838" via="265010598#4 266086974#1 266086974#2 333682044#1 265010581#0 62066589#1 461203108#1 333682046#1 333682046#2 353940882#0 353940882#1 353940882#2 1015181076#0 354858498#1 285454834#1"/>
    <trip id="vehicle_99" depart="1470.00" color="green" from="820214408" to="4853038#1" via="951326913#0 171300278#2 353940876#1 353940876#2 461203109#1 333682043#1 333682043#3 333682043#4 1015181078#1 1015181078#3 333682042#3 333682045 987049868#0 265010588#1 265010588#4"/>

    <trip id="vehicle_100" depart="1500.00" color="red" from="265010598#1" to="682445838" via="265010598#4 266086974#1 266086974#2 333682044#1 265010581#0 62066589#1 461203108#1 333682046#1 333682046#2 353940882#0 353940882#1 353940882#2 1015181076#0 354858498#1 285454834#1"/>
    <trip id="vehicle_101" depart="1500.00" color="green" from="820214408" to="4853038#1" via="951326913#0 171300278#2 353940876#1 353940876#2 461203109#1 333682043#1 333682043#3 333682043#4 1015181078#1 1015181078#3 333682042#3 333682045 987049868#0 265010588#1 265010588#4"/>
