<?xml version="1.0" encoding="UTF-8"?>

<!-- generated on 2022-01-31 19:57:00 by Eclipse SUMO netedit Version 1.9.2
<configuration xmlns:xsi="http://www.w3.org/2001/XMLSchema-instance" xsi:noNamespaceSchemaLocation="http://sumo.dlr.de/xsd/netconvertConfiguration.xsd">

    <input>
        <sumo-net-file value="C:\Users\OTSLCPS004\Sumo\2022-01-28-10-37-36-shinjuku\osm.net.xml"/>
    </input>

    <output>
        <output-file value="C:\Users\OTSLCPS004\Sumo\2022-01-28-10-37-36-shinjuku\osm.net.xml"/>
        <output.street-names value="true"/>
    </output>

    <processing>
        <geometry.min-radius.fix.railways value="false"/>
        <geometry.max-grade.fix value="false"/>
        <offset.disable-normalization value="true"/>
        <lefthand value="true"/>
    </processing>

    <junctions>
        <no-internal-links value="false"/>
        <no-turnarounds value="true"/>
        <junctions.corner-detail value="5"/>
        <junctions.limit-turn-speed value="5.5"/>
        <rectangular-lane-cut value="false"/>
    </junctions>

    <pedestrian>
        <walkingareas value="true"/>
    </pedestrian>

    <report>
        <aggregate-warnings value="5"/>
    </report>

</configuration>
-->

<additional xmlns:xsi="http://www.w3.org/2001/XMLSchema-instance" xsi:noNamespaceSchemaLocation="http://sumo.dlr.de/xsd/additional_file.xsd">
    <tlLogic id="joinedS_1" type="actuated" programID="0" offset="0">
        <phase duration="7" state="GGGrrrrrrrrrrrrrrrrrrrrrrGGrrrrGGGr" minDur="5" maxDur="50"/>
        <phase duration="5" state="GGGrrrrrrrrrrrrrrrrrrrrrrGGrrrrrrrr"/>
        <phase duration="3" state="yyyrrrrrrrrrrrrrrrrrrrrrryyrrrrrrrr"/>
        <phase duration="7" state="rrrrrrGrrrrrrrrrrrrrrrrrrrrrrrGGGGG" minDur="5" maxDur="50"/>
        <phase duration="5" state="rrrrrrGrrrrrrrrrrrrrrrrrrrrrrrrrrrr"/>
        <phase duration="3" state="rrrrrryrrrrrrrrrrrrrrrrrrrrrrrrrrrr"/>
        <phase duration="7" state="rrrrrrrGGrrrrrrrrrrrrrrrrrrrrrGGGGG" minDur="5" maxDur="50"/>
        <phase duration="5" state="rrrrrrrGGrrrrrrrrrrrrrrrrrrrrrrrrrr"/>
        <phase duration="3" state="rrrrrrryyrrrrrrrrrrrrrrrrrrrrrrrrrr"/>
        <phase duration="7" state="rrrGGGrrrgGGrrrrrrrrrrrrrGGrrrGGGGr" minDur="5" maxDur="50"/>
        <phase duration="5" state="rrrGGGrrrgGGrrrrrrrrrrrrrGGrrrrrrrr"/>
        <phase duration="3" state="rrryyyrrryyyrrrrrrrrrrrrryyrrrrrrrr"/>
        <phase duration="7" state="rrrGGGrrrrrrGGGGGGGGGGrrrGGrrrGrrrr" minDur="5" maxDur="50"/>
        <phase duration="5" state="rrrGGGrrrrrrGGGGGGGGGGrrrGGrrrrrrrr"/>
        <phase duration="3" state="rrryyyrrrrrryyyyyyyyyyrrryyrrrrrrrr"/>
        <phase duration="7" state="rrrGGGrrrrrrGGGrrrrrrrGGGGGgggGrGGr" minDur="5" maxDur="50"/>
        <phase duration="5" state="rrrGGGrrrrrrGGGrrrrrrrGGGGGgggrrrrr"/>
        <phase duration="3" state="rrryyyrrrrrryyyrrrrrrryyyyyyyyrrrrr"/>
    </tlLogic>
</additional>
