<?xml version="1.0" encoding="UTF-8"?>
<!-- generated on 2022-01-31 11:48:39.571583 by $Id$ v1_9_2+0000-4206cfae24
  options: -n osm.net.xml <doubleminus>fringe-factor 1 -p 1.227385 -o osm.pedestrian.trips.xml -e 3600 -r osm.pedestrian.rou.xml <doubleminus>vehicle-class pedestrian <doubleminus>pedestrians <doubleminus>prefix ped <doubleminus>max-distance 2000
-->
<routes xmlns:xsi="http://www.w3.org/2001/XMLSchema-instance" xsi:noNamespaceSchemaLocation="http://sumo.dlr.de/xsd/routes_file.xsd">
    <vType id="ped_pedestrian" vClass="pedestrian"/>
    <person id="ped0" depart="0.00" type="ped_pedestrian">
        <walk from="572505820#1" to="-245926142#2"/>
    </person>
    <person id="ped1" depart="1.23" type="ped_pedestrian">
        <walk from="231774696#4" to="184723798#3"/>
    </person>
    <person id="ped2" depart="2.45" type="ped_pedestrian">
        <walk from="619369677#1" to="573210043"/>
    </person>
    <person id="ped3" depart="3.68" type="ped_pedestrian">
        <walk from="673877262#0" to="-39683368#4"/>
    </person>
    <person id="ped4" depart="4.91" type="ped_pedestrian">
        <walk from="39436607#1" to="-27085402#14"/>
    </person>
    <person id="ped5" depart="6.14" type="ped_pedestrian">
        <walk from="184298557#2" to="54046370"/>
    </person>
    <person id="ped6" depart="7.36" type="ped_pedestrian">
        <walk from="-251308527#4" to="169403138#2"/>
    </person>
    <person id="ped7" depart="8.59" type="ped_pedestrian">
        <walk from="572510161#18" to="541876603#1"/>
    </person>
    <person id="ped8" depart="9.82" type="ped_pedestrian">
        <walk from="184298559#10" to="572215783#0"/>
    </person>
    <person id="ped9" depart="11.05" type="ped_pedestrian">
        <walk from="670754145#0" to="-144775072#3"/>
    </person>
    <person id="ped10" depart="12.27" type="ped_pedestrian">
        <walk from="670747648" to="583722966#2"/>
    </person>
    <person id="ped11" depart="13.50" type="ped_pedestrian">
        <walk from="331618097#5" to="144776662#0"/>
    </person>
    <person id="ped12" depart="14.73" type="ped_pedestrian">
        <walk from="72457417#2" to="328098130#0"/>
    </person>
    <person id="ped13" depart="15.96" type="ped_pedestrian">
        <walk from="-39683410#2" to="-39683426"/>
    </person>
    <person id="ped14" depart="17.18" type="ped_pedestrian">
        <walk from="670957149#0" to="572330879#2"/>
    </person>
    <person id="ped15" depart="18.41" type="ped_pedestrian">
        <walk from="670747665#1" to="619292956#19"/>
    </person>
    <person id="ped16" depart="19.64" type="ped_pedestrian">
        <walk from="541852670" to="850307484#1"/>
    </person>
    <person id="ped17" depart="20.87" type="ped_pedestrian">
        <walk from="39433561#2" to="541933040#9"/>
    </person>
    <person id="ped18" depart="22.09" type="ped_pedestrian">
        <walk from="670818658" to="572345501#0"/>
    </person>
    <person id="ped19" depart="23.32" type="ped_pedestrian">
        <walk from="670995220#0" to="571949714#1"/>
    </person>
    <person id="ped20" depart="24.55" type="ped_pedestrian">
        <walk from="583899344#0" to="-39393275#0"/>
    </person>
    <person id="ped21" depart="25.78" type="ped_pedestrian">
        <walk from="196467148#0" to="251311714#10"/>
    </person>
    <person id="ped22" depart="27.00" type="ped_pedestrian">
        <walk from="-39501450#1" to="199152191#3"/>
    </person>
    <person id="ped23" depart="28.23" type="ped_pedestrian">
        <walk from="-39683507" to="242897853#0"/>
    </person>
    <person id="ped24" depart="29.46" type="ped_pedestrian">
        <walk from="572498073#4" to="39393255#0"/>
    </person>
    <person id="ped25" depart="30.68" type="ped_pedestrian">
        <walk from="39393295#3" to="184295739#9"/>
    </person>
    <person id="ped26" depart="31.91" type="ped_pedestrian">
        <walk from="229076839#2" to="687873168#1"/>
    </person>
    <person id="ped27" depart="33.14" type="ped_pedestrian">
        <walk from="572510160#1" to="572330903#12"/>
    </person>
    <person id="ped28" depart="34.37" type="ped_pedestrian">
        <walk from="155009840#1" to="619292956#15"/>
    </person>
    <person id="ped29" depart="35.59" type="ped_pedestrian">
        <walk from="153756859#2" to="39433563"/>
    </person>
    <person id="ped30" depart="36.82" type="ped_pedestrian">
        <walk from="926090816#2" to="572505821#3"/>
    </person>
    <person id="ped31" depart="38.05" type="ped_pedestrian">
        <walk from="542310811#9" to="575384556"/>
    </person>
    <person id="ped32" depart="39.28" type="ped_pedestrian">
        <walk from="670955039#2" to="666209784#0"/>
    </person>
    <person id="ped33" depart="40.50" type="ped_pedestrian">
        <walk from="196467159#10" to="-306095928#1"/>
    </person>
    <person id="ped34" depart="41.73" type="ped_pedestrian">
        <walk from="285015032#1" to="230395550#3"/>
    </person>
    <person id="ped35" depart="42.96" type="ped_pedestrian">
        <walk from="184295759#2" to="690580503"/>
    </person>
    <person id="ped36" depart="44.19" type="ped_pedestrian">
        <walk from="673570992#12" to="282647403#4"/>
    </person>
    <person id="ped37" depart="45.41" type="ped_pedestrian">
        <walk from="572532062" to="39433624#1"/>
    </person>
    <person id="ped38" depart="46.64" type="ped_pedestrian">
        <walk from="684375340" to="39683535#0"/>
    </person>
    <person id="ped39" depart="47.87" type="ped_pedestrian">
        <walk from="217100677#11" to="209775277#4"/>
    </person>
    <person id="ped40" depart="49.10" type="ped_pedestrian">
        <walk from="542310820#1" to="216896031#1"/>
    </person>
    <person id="ped41" depart="50.32" type="ped_pedestrian">
        <walk from="571949732#2" to="674433345#9"/>
    </person>
    <person id="ped42" depart="51.55" type="ped_pedestrian">
        <walk from="39436499" to="184298557#5"/>
    </person>
    <person id="ped43" depart="52.78" type="ped_pedestrian">
        <walk from="965405385" to="54048199#3"/>
    </person>
    <person id="ped44" depart="54.00" type="ped_pedestrian">
        <walk from="-39683407#7" to="-39393277#1"/>
    </person>
    <person id="ped45" depart="55.23" type="ped_pedestrian">
        <walk from="-478447612#1" to="572347222#1"/>
    </person>
    <person id="ped46" depart="56.46" type="ped_pedestrian">
        <walk from="666211117#6" to="39436607#2"/>
    </person>
    <person id="ped47" depart="57.69" type="ped_pedestrian">
        <walk from="-39433600#1" to="39433579#1"/>
    </person>
    <person id="ped48" depart="58.91" type="ped_pedestrian">
        <walk from="95939307#1" to="541852656#20"/>
    </person>
    <person id="ped49" depart="60.14" type="ped_pedestrian">
        <walk from="850098866" to="670992445#5"/>
    </person>
    <person id="ped50" depart="61.37" type="ped_pedestrian">
        <walk from="-155009832#2" to="585532851"/>
    </person>
    <person id="ped51" depart="62.60" type="ped_pedestrian">
        <walk from="574076574#0" to="541852672#3"/>
    </person>
    <person id="ped52" depart="63.82" type="ped_pedestrian">
        <walk from="229076839#1" to="572505821#8"/>
    </person>
    <person id="ped53" depart="65.05" type="ped_pedestrian">
        <walk from="-53154970#2" to="395015310"/>
    </person>
    <person id="ped54" depart="66.28" type="ped_pedestrian">
        <walk from="39683439#0" to="692356898#1"/>
    </person>
    <person id="ped55" depart="67.51" type="ped_pedestrian">
        <walk from="673570992#1" to="216896031#7"/>
    </person>
    <person id="ped56" depart="68.73" type="ped_pedestrian">
        <walk from="54044203" to="155235365"/>
    </person>
    <person id="ped57" depart="69.96" type="ped_pedestrian">
        <walk from="684372053" to="67113649#1"/>
    </person>
    <person id="ped58" depart="71.19" type="ped_pedestrian">
        <walk from="261815519#4" to="572505818#9"/>
    </person>
    <person id="ped59" depart="72.42" type="ped_pedestrian">
        <walk from="572330903#11" to="144775070#3"/>
    </person>
    <person id="ped60" depart="73.64" type="ped_pedestrian">
        <walk from="666208507#0" to="541862320"/>
    </person>
    <person id="ped61" depart="74.87" type="ped_pedestrian">
        <walk from="666211001#1" to="541852656#7"/>
    </person>
    <person id="ped62" depart="76.10" type="ped_pedestrian">
        <walk from="-107719979#0" to="294519949#6"/>
    </person>
    <person id="ped63" depart="77.33" type="ped_pedestrian">
        <walk from="-196467149" to="687752387"/>
    </person>
    <person id="ped64" depart="78.55" type="ped_pedestrian">
        <walk from="673570992#5" to="670818666#1"/>
    </person>
    <person id="ped65" depart="79.78" type="ped_pedestrian">
        <walk from="673570992#20" to="691671325#1"/>
    </person>
    <person id="ped66" depart="81.01" type="ped_pedestrian">
        <walk from="-39683361#0" to="478539676#1"/>
    </person>
    <person id="ped67" depart="82.23" type="ped_pedestrian">
        <walk from="-39436439#1" to="666208502#0"/>
    </person>
    <person id="ped68" depart="83.46" type="ped_pedestrian">
        <walk from="666208511#8" to="-95793047#1"/>
    </person>
    <person id="ped69" depart="84.69" type="ped_pedestrian">
        <walk from="478447611#0" to="541907282"/>
    </person>
    <person id="ped70" depart="85.92" type="ped_pedestrian">
        <walk from="217100677#2" to="673390884"/>
    </person>
    <person id="ped71" depart="87.14" type="ped_pedestrian">
        <walk from="39436612#1" to="184295759#6"/>
    </person>
    <person id="ped72" depart="88.37" type="ped_pedestrian">
        <walk from="541862319" to="619292956#2"/>
    </person>
    <person id="ped73" depart="89.60" type="ped_pedestrian">
        <walk from="170232032" to="27817781#1"/>
    </person>
    <person id="ped74" depart="90.83" type="ped_pedestrian">
        <walk from="95937729#2" to="572510161#18"/>
    </person>
    <person id="ped75" depart="92.05" type="ped_pedestrian">
        <walk from="39683334#8" to="541852648#1"/>
    </person>
    <person id="ped76" depart="93.28" type="ped_pedestrian">
        <walk from="-666208840" to="184723802#6"/>
    </person>
    <person id="ped77" depart="94.51" type="ped_pedestrian">
        <walk from="328098132#2" to="571949734"/>
    </person>
    <person id="ped78" depart="95.74" type="ped_pedestrian">
        <walk from="196467159#6" to="184298559#1"/>
    </person>
    <person id="ped79" depart="96.96" type="ped_pedestrian">
        <walk from="-39436505#2" to="572498049#3"/>
    </person>
    <person id="ped80" depart="98.19" type="ped_pedestrian">
        <walk from="196467159#10" to="684171132#1"/>
    </person>
    <person id="ped81" depart="99.42" type="ped_pedestrian">
        <walk from="670992444#0" to="-39436505#1"/>
    </person>
    <person id="ped82" depart="100.65" type="ped_pedestrian">
        <walk from="209546683#7" to="573104788"/>
    </person>
    <person id="ped83" depart="101.87" type="ped_pedestrian">
        <walk from="184297766#3" to="103063340#0"/>
    </person>
    <person id="ped84" depart="103.10" type="ped_pedestrian">
        <walk from="687829655#0" to="569740830#1"/>
    </person>
    <person id="ped85" depart="104.33" type="ped_pedestrian">
        <walk from="464303344#2" to="666211013#0"/>
    </person>
    <person id="ped86" depart="105.56" type="ped_pedestrian">
        <walk from="670747669#1" to="157660784#1"/>
    </person>
    <person id="ped87" depart="106.78" type="ped_pedestrian">
        <walk from="-39683427" to="39501455#0"/>
    </person>
    <person id="ped88" depart="108.01" type="ped_pedestrian">
        <walk from="39436612#6" to="45642813#3"/>
    </person>
    <person id="ped89" depart="109.24" type="ped_pedestrian">
        <walk from="619292956#15" to="573113730"/>
    </person>
    <person id="ped90" depart="110.46" type="ped_pedestrian">
        <walk from="887779309#0" to="-39683439#0"/>
    </person>
    <person id="ped91" depart="111.69" type="ped_pedestrian">
        <walk from="39436507#7" to="331618096#2"/>
    </person>
    <person id="ped92" depart="112.92" type="ped_pedestrian">
        <walk from="670994731" to="209775292#4"/>
    </person>
    <person id="ped93" depart="114.15" type="ped_pedestrian">
        <walk from="157660784#0" to="39683412#1"/>
    </person>
    <person id="ped94" depart="115.37" type="ped_pedestrian">
        <walk from="39436607#1" to="243007650#1"/>
    </person>
    <person id="ped95" depart="116.60" type="ped_pedestrian">
        <walk from="209775295" to="687732740"/>
    </person>
    <person id="ped96" depart="117.83" type="ped_pedestrian">
        <walk from="39683373#1" to="670994730"/>
    </person>
    <person id="ped97" depart="119.06" type="ped_pedestrian">
        <walk from="541933040#10" to="-39393302#0"/>
    </person>
    <person id="ped98" depart="120.28" type="ped_pedestrian">
        <walk from="987854651" to="670945703#1"/>
    </person>
    <person id="ped99" depart="121.51" type="ped_pedestrian">
        <walk from="850052792#2" to="687732751"/>
    </person>
    <person id="ped100" depart="122.74" type="ped_pedestrian">
        <walk from="670963767" to="153989315#2"/>
    </person>
    <person id="ped101" depart="123.97" type="ped_pedestrian">
        <walk from="478539667#1" to="184295768#1"/>
    </person>
    <person id="ped102" depart="125.19" type="ped_pedestrian">
        <walk from="39436505#0" to="-39433579#1"/>
    </person>
    <person id="ped103" depart="126.42" type="ped_pedestrian">
        <walk from="39433561#4" to="89882383#1"/>
    </person>
    <person id="ped104" depart="127.65" type="ped_pedestrian">
        <walk from="217100677#4" to="666211011#1"/>
    </person>
    <person id="ped105" depart="128.88" type="ped_pedestrian">
        <walk from="39683495#0" to="39436612#1"/>
    </person>
    <person id="ped106" depart="130.10" type="ped_pedestrian">
        <walk from="72457417#2" to="95939304"/>
    </person>
    <person id="ped107" depart="131.33" type="ped_pedestrian">
        <walk from="542310811#2" to="584077178#3"/>
    </person>
    <person id="ped108" depart="132.56" type="ped_pedestrian">
        <walk from="144775072#5" to="258863046#1"/>
    </person>
    <person id="ped109" depart="133.78" type="ped_pedestrian">
        <walk from="850052792#0" to="571949720#2"/>
    </person>
    <person id="ped110" depart="135.01" type="ped_pedestrian">
        <walk from="541875193#8" to="662685871#0"/>
    </person>
    <person id="ped111" depart="136.24" type="ped_pedestrian">
        <walk from="-39433566#0" to="571949732#0"/>
    </person>
    <person id="ped112" depart="137.47" type="ped_pedestrian">
        <walk from="54044211#0" to="670982466"/>
    </person>
    <person id="ped113" depart="138.69" type="ped_pedestrian">
        <walk from="147237362#0" to="759382666"/>
    </person>
    <person id="ped114" depart="139.92" type="ped_pedestrian">
        <walk from="-39501450#2" to="157165825#12"/>
    </person>
    <person id="ped115" depart="141.15" type="ped_pedestrian">
        <walk from="572293461#2" to="573210024#1"/>
    </person>
    <person id="ped116" depart="142.38" type="ped_pedestrian">
        <walk from="199152194#0" to="-625857844"/>
    </person>
    <person id="ped117" depart="143.60" type="ped_pedestrian">
        <walk from="673872318" to="209775277#1"/>
    </person>
    <person id="ped118" depart="144.83" type="ped_pedestrian">
        <walk from="572290920" to="572345506#2"/>
    </person>
    <person id="ped119" depart="146.06" type="ped_pedestrian">
        <walk from="39436602#0" to="571949731#6"/>
    </person>
    <person id="ped120" depart="147.29" type="ped_pedestrian">
        <walk from="541852649#11" to="687789981"/>
    </person>
    <person id="ped121" depart="148.51" type="ped_pedestrian">
        <walk from="170232040#5" to="584077145"/>
    </person>
    <person id="ped122" depart="149.74" type="ped_pedestrian">
        <walk from="209546684#3" to="39433624#2"/>
    </person>
    <person id="ped123" depart="150.97" type="ped_pedestrian">
        <walk from="573113726#0" to="264902720#1"/>
    </person>
    <person id="ped124" depart="152.20" type="ped_pedestrian">
        <walk from="285015034#0" to="662692528#3"/>
    </person>
    <person id="ped125" depart="153.42" type="ped_pedestrian">
        <walk from="-39436538#3" to="39683528#0"/>
    </person>
    <person id="ped126" depart="154.65" type="ped_pedestrian">
        <walk from="975039882" to="95939307#1"/>
    </person>
    <person id="ped127" depart="155.88" type="ped_pedestrian">
        <walk from="-39436553#0" to="184295764#5"/>
    </person>
    <person id="ped128" depart="157.11" type="ped_pedestrian">
        <walk from="217100677#4" to="687789971#1"/>
    </person>
    <person id="ped129" depart="158.33" type="ped_pedestrian">
        <walk from="673579017#1" to="673570992#8"/>
    </person>
    <person id="ped130" depart="159.56" type="ped_pedestrian">
        <walk from="39393294" to="147237362#2"/>
    </person>
    <person id="ped131" depart="160.79" type="ped_pedestrian">
        <walk from="670938290#0" to="583899319#2"/>
    </person>
    <person id="ped132" depart="162.01" type="ped_pedestrian">
        <walk from="572330908#2" to="924844759#1"/>
    </person>
    <person id="ped133" depart="163.24" type="ped_pedestrian">
        <walk from="572511890#0" to="-147237364#2"/>
    </person>
    <person id="ped134" depart="164.47" type="ped_pedestrian">
        <walk from="670763643#1" to="264902719#2"/>
    </person>
    <person id="ped135" depart="165.70" type="ped_pedestrian">
        <walk from="572619532" to="688686080#2"/>
    </person>
    <person id="ped136" depart="166.92" type="ped_pedestrian">
        <walk from="107719975" to="-572505823#1"/>
    </person>
    <person id="ped137" depart="168.15" type="ped_pedestrian">
        <walk from="-45642813#0" to="542037738#13"/>
    </person>
    <person id="ped138" depart="169.38" type="ped_pedestrian">
        <walk from="230562269#20" to="572330883#2"/>
    </person>
    <person id="ped139" depart="170.61" type="ped_pedestrian">
        <walk from="584077173" to="170232040#2"/>
    </person>
    <person id="ped140" depart="171.83" type="ped_pedestrian">
        <walk from="572498071#0" to="217090090#2"/>
    </person>
    <person id="ped141" depart="173.06" type="ped_pedestrian">
        <walk from="481022374" to="684171132#0"/>
    </person>
    <person id="ped142" depart="174.29" type="ped_pedestrian">
        <walk from="670957148#10" to="-39683410#0"/>
    </person>
    <person id="ped143" depart="175.52" type="ped_pedestrian">
        <walk from="39436612#6" to="236959055#0"/>
    </person>
    <person id="ped144" depart="176.74" type="ped_pedestrian">
        <walk from="-136938168#4" to="666208845#1"/>
    </person>
    <person id="ped145" depart="177.97" type="ped_pedestrian">
        <walk from="572505818#1" to="216480484#2"/>
    </person>
    <person id="ped146" depart="179.20" type="ped_pedestrian">
        <walk from="657121034#1" to="541933040#7"/>
    </person>
    <person id="ped147" depart="180.43" type="ped_pedestrian">
        <walk from="39445398#3" to="-153756869"/>
    </person>
    <person id="ped148" depart="181.65" type="ped_pedestrian">
        <walk from="-39436592#2" to="673625133#1"/>
    </person>
    <person id="ped149" depart="182.88" type="ped_pedestrian">
        <walk from="684171124" to="541894822"/>
    </person>
    <person id="ped150" depart="184.11" type="ped_pedestrian">
        <walk from="670938291#1" to="571949730#4"/>
    </person>
    <person id="ped151" depart="185.34" type="ped_pedestrian">
        <walk from="143327353" to="-91896629#2"/>
    </person>
    <person id="ped152" depart="186.56" type="ped_pedestrian">
        <walk from="27817633#2" to="680680581#4"/>
    </person>
    <person id="ped153" depart="187.79" type="ped_pedestrian">
        <walk from="670609943#1" to="670992445#4"/>
    </person>
    <person id="ped154" depart="189.02" type="ped_pedestrian">
        <walk from="680680581#4" to="184295740#3"/>
    </person>
    <person id="ped155" depart="190.24" type="ped_pedestrian">
        <walk from="209775292#8" to="-39683528#0"/>
    </person>
    <person id="ped156" depart="191.47" type="ped_pedestrian">
        <walk from="666211004#3" to="673633931"/>
    </person>
    <person id="ped157" depart="192.70" type="ped_pedestrian">
        <walk from="39436520" to="572345513#10"/>
    </person>
    <person id="ped158" depart="193.93" type="ped_pedestrian">
        <walk from="144775072#3" to="687752389#2"/>
    </person>
    <person id="ped159" depart="195.15" type="ped_pedestrian">
        <walk from="670997109#0" to="856432645#3"/>
    </person>
    <person id="ped160" depart="196.38" type="ped_pedestrian">
        <walk from="670754900" to="673580634#1"/>
    </person>
    <person id="ped161" depart="197.61" type="ped_pedestrian">
        <walk from="-245926142#10" to="625857844"/>
    </person>
    <person id="ped162" depart="198.84" type="ped_pedestrian">
        <walk from="318034649#1" to="687752394#1"/>
    </person>
    <person id="ped163" depart="200.06" type="ped_pedestrian">
        <walk from="670733026#0" to="670997107#0"/>
    </person>
    <person id="ped164" depart="201.29" type="ped_pedestrian">
        <walk from="670754900" to="229076839#1"/>
    </person>
    <person id="ped165" depart="202.52" type="ped_pedestrian">
        <walk from="666211021#2" to="-45644146#1"/>
    </person>
    <person id="ped166" depart="203.75" type="ped_pedestrian">
        <walk from="673390883" to="670992441#2"/>
    </person>
    <person id="ped167" depart="204.97" type="ped_pedestrian">
        <walk from="184298560#1" to="670763641"/>
    </person>
    <person id="ped168" depart="206.20" type="ped_pedestrian">
        <walk from="39683539" to="27817362#1"/>
    </person>
    <person id="ped169" depart="207.43" type="ped_pedestrian">
        <walk from="670609941#1" to="196467147#2"/>
    </person>
    <person id="ped170" depart="208.66" type="ped_pedestrian">
        <walk from="-220735552" to="157862118#1"/>
    </person>
    <person id="ped171" depart="209.88" type="ped_pedestrian">
        <walk from="312409074#4" to="670997108"/>
    </person>
    <person id="ped172" depart="211.11" type="ped_pedestrian">
        <walk from="850052786#2" to="243007652#1"/>
    </person>
    <person id="ped173" depart="212.34" type="ped_pedestrian">
        <walk from="572505823#0" to="39436500#0"/>
    </person>
    <person id="ped174" depart="213.56" type="ped_pedestrian">
        <walk from="886645247#0" to="541852669"/>
    </person>
    <person id="ped175" depart="214.79" type="ped_pedestrian">
        <walk from="688686080#3" to="-572505823#1"/>
    </person>
    <person id="ped176" depart="216.02" type="ped_pedestrian">
        <walk from="850096772#4" to="155235365"/>
    </person>
    <person id="ped177" depart="217.25" type="ped_pedestrian">
        <walk from="808019467" to="217100677#8"/>
    </person>
    <person id="ped178" depart="218.47" type="ped_pedestrian">
        <walk from="-45644146#4" to="395015309"/>
    </person>
    <person id="ped179" depart="219.70" type="ped_pedestrian">
        <walk from="619292956#12" to="27818048#2"/>
    </person>
    <person id="ped180" depart="220.93" type="ped_pedestrian">
        <walk from="572330897#3" to="54048208#1"/>
    </person>
    <person id="ped181" depart="222.16" type="ped_pedestrian">
        <walk from="39433591#2" to="571949711#2"/>
    </person>
    <person id="ped182" depart="223.38" type="ped_pedestrian">
        <walk from="214214085#2" to="583924058"/>
    </person>
    <person id="ped183" depart="224.61" type="ped_pedestrian">
        <walk from="-107771170#1" to="687732747"/>
    </person>
    <person id="ped184" depart="225.84" type="ped_pedestrian">
        <walk from="541861476#0" to="585532847"/>
    </person>
    <person id="ped185" depart="227.07" type="ped_pedestrian">
        <walk from="660599138#1" to="573113722#6"/>
    </person>
    <person id="ped186" depart="228.29" type="ped_pedestrian">
        <walk from="39393245#2" to="-39436453"/>
    </person>
    <person id="ped187" depart="229.52" type="ped_pedestrian">
        <walk from="572930361#2" to="318034646#11"/>
    </person>
    <person id="ped188" depart="230.75" type="ped_pedestrian">
        <walk from="27818048#3" to="670957617"/>
    </person>
    <person id="ped189" depart="231.98" type="ped_pedestrian">
        <walk from="585532849" to="264976789#1"/>
    </person>
    <person id="ped190" depart="233.20" type="ped_pedestrian">
        <walk from="27817701#0" to="39436535#0"/>
    </person>
    <person id="ped191" depart="234.43" type="ped_pedestrian">
        <walk from="39436507#6" to="258834782#2"/>
    </person>
    <person id="ped192" depart="235.66" type="ped_pedestrian">
        <walk from="-91896629#1" to="39436604#1"/>
    </person>
    <person id="ped193" depart="236.89" type="ped_pedestrian">
        <walk from="690428058" to="573318927#1"/>
    </person>
    <person id="ped194" depart="238.11" type="ped_pedestrian">
        <walk from="684145378#1" to="572345481#0"/>
    </person>
    <person id="ped195" depart="239.34" type="ped_pedestrian">
        <walk from="265376980" to="541907261"/>
    </person>
    <person id="ped196" depart="240.57" type="ped_pedestrian">
        <walk from="-107719978" to="251308523#2"/>
    </person>
    <person id="ped197" depart="241.79" type="ped_pedestrian">
        <walk from="39501450#1" to="571949723"/>
    </person>
    <person id="ped198" depart="243.02" type="ped_pedestrian">
        <walk from="572511903" to="453997077#1"/>
    </person>
    <person id="ped199" depart="244.25" type="ped_pedestrian">
        <walk from="39683368#1" to="184295768#1"/>
    </person>
    <person id="ped200" depart="245.48" type="ped_pedestrian">
        <walk from="464303356" to="684130769"/>
    </person>
    <person id="ped201" depart="246.70" type="ped_pedestrian">
        <walk from="670609943#1" to="155009834"/>
    </person>
    <person id="ped202" depart="247.93" type="ped_pedestrian">
        <walk from="-39683342#3" to="54048220#1"/>
    </person>
    <person id="ped203" depart="249.16" type="ped_pedestrian">
        <walk from="572498064#1" to="328098119#0"/>
    </person>
    <person id="ped204" depart="250.39" type="ped_pedestrian">
        <walk from="670809987" to="662692527"/>
    </person>
    <person id="ped205" depart="251.61" type="ped_pedestrian">
        <walk from="573113727#1" to="184723802#5"/>
    </person>
    <person id="ped206" depart="252.84" type="ped_pedestrian">
        <walk from="170232025#0" to="-245926142#0"/>
    </person>
    <person id="ped207" depart="254.07" type="ped_pedestrian">
        <walk from="209758753#0" to="478447611#0"/>
    </person>
    <person id="ped208" depart="255.30" type="ped_pedestrian">
        <walk from="670967779#0" to="-39436543"/>
    </person>
    <person id="ped209" depart="256.52" type="ped_pedestrian">
        <walk from="39436582#1" to="572495089"/>
    </person>
    <person id="ped210" depart="257.75" type="ped_pedestrian">
        <walk from="157862118#8" to="583722953#0"/>
    </person>
    <person id="ped211" depart="258.98" type="ped_pedestrian">
        <walk from="499267879#2" to="209678414#8"/>
    </person>
    <person id="ped212" depart="260.21" type="ped_pedestrian">
        <walk from="572558403#0" to="-143327353"/>
    </person>
    <person id="ped213" depart="261.43" type="ped_pedestrian">
        <walk from="662692526" to="666208843#0"/>
    </person>
    <person id="ped214" depart="262.66" type="ped_pedestrian">
        <walk from="-453997077#2" to="39436621#0"/>
    </person>
    <person id="ped215" depart="263.89" type="ped_pedestrian">
        <walk from="155224463#8" to="725924929"/>
    </person>
    <person id="ped216" depart="265.12" type="ped_pedestrian">
        <walk from="541852648#13" to="-39393299#1"/>
    </person>
    <person id="ped217" depart="266.34" type="ped_pedestrian">
        <walk from="209775292#7" to="670963765#1"/>
    </person>
    <person id="ped218" depart="267.57" type="ped_pedestrian">
        <walk from="39683511#1" to="670733024#0"/>
    </person>
    <person id="ped219" depart="268.80" type="ped_pedestrian">
        <walk from="573007161#0" to="924844762"/>
    </person>
    <person id="ped220" depart="270.02" type="ped_pedestrian">
        <walk from="572293461#4" to="691671332#3"/>
    </person>
    <person id="ped221" depart="271.25" type="ped_pedestrian">
        <walk from="673873299#6" to="572345466#0"/>
    </person>
    <person id="ped222" depart="272.48" type="ped_pedestrian">
        <walk from="584077178#8" to="54046368#1"/>
    </person>
    <person id="ped223" depart="273.71" type="ped_pedestrian">
        <walk from="670818664#0" to="541907260"/>
    </person>
    <person id="ped224" depart="274.93" type="ped_pedestrian">
        <walk from="674433345#6" to="662648645#1"/>
    </person>
    <person id="ped225" depart="276.16" type="ped_pedestrian">
        <walk from="478447610#3" to="216480480#8"/>
    </person>