<?xml version="1.0" encoding="UTF-8"?>

<!-- generated on 2022-01-31 11:48:47 by Eclipse SUMO duarouter Version 1.9.2
<configuration xmlns:xsi="http://www.w3.org/2001/XMLSchema-instance" xsi:noNamespaceSchemaLocation="http://sumo.dlr.de/xsd/duarouterConfiguration.xsd">

    <input>
        <net-file value="osm.net.xml"/>
        <route-files value="osm.passenger.trips.xml"/>
    </input>

    <output>
        <output-file value="osm.passenger.trips.xml.tmp"/>
        <write-trips value="true"/>
    </output>

    <time>
        <begin value="0"/>
        <end value="3600"/>
    </time>

    <report>
        <no-warnings value="true"/>
        <ignore-errors value="true"/>
        <no-step-log value="true"/>
    </report>

</configuration>
-->

<routes xmlns:xsi="http://www.w3.org/2001/XMLSchema-instance" xsi:noNamespaceSchemaLocation="http://sumo.dlr.de/xsd/routes_file.xsd">
    <vType id="veh_passenger" vClass="passenger"/>
    <trip id="veh0" type="veh_passenger" depart="0.00" departLane="best" from="393957069#0" to="-170232040#13"/>
    <trip id="veh1" type="veh_passenger" depart="1.35" departLane="best" from="107771170#4" to="-39683511#3"/>
    <trip id="veh2" type="veh_passenger" depart="2.70" departLane="best" from="39436591#1" to="39433591#5"/>
    <trip id="veh3" type="veh_passenger" depart="4.05" departLane="best" from="619292956#14" to="-39393244#1"/>
    <trip id="veh4" type="veh_passenger" depart="5.40" departLane="best" from="199152206#1" to="-170232040#7"/>
    <trip id="veh5" type="veh_passenger" depart="6.75" departLane="best" from="-39683451" to="251311713#1"/>
    <trip id="veh6" type="veh_passenger" depart="8.10" departLane="best" from="-170232040#18" to="-39683407#7"/>
    <trip id="veh7" type="veh_passenger" depart="9.45" departLane="best" from="39433558#3" to="27085402#11"/>
    <trip id="veh8" type="veh_passenger" depart="10.80" departLane="best" from="-39683495#1" to="32636352#2"/>
    <trip id="veh9" type="veh_passenger" depart="12.15" departLane="best" from="39683422#1" to="-137189946#2"/>
    <trip id="veh10" type="veh_passenger" depart="13.50" departLane="best" from="39683417#1" to="39433622#0"/>
    <trip id="veh11" type="veh_passenger" depart="14.85" departLane="best" from="157862107#8" to="-39436516#3"/>
    <trip id="veh12" type="veh_passenger" depart="16.20" departLane="best" from="886386617#2" to="157862107#0"/>
    <trip id="veh13" type="veh_passenger" depart="17.54" departLane="best" from="39683418#1" to="39436538#3"/>
    <trip id="veh14" type="veh_passenger" depart="18.89" departLane="best" from="26959128#2" to="924378577#0"/>
    <trip id="veh15" type="veh_passenger" depart="20.24" departLane="best" departSpeed="max" from="182487179#0" to="282647403#4"/>
    <trip id="veh16" type="veh_passenger" depart="21.59" departLane="best" from="39683537#5" to="381689887#3"/>
    <trip id="veh17" type="veh_passenger" depart="22.94" departLane="best" from="45766796#2" to="294519949#4"/>
    <trip id="veh18" type="veh_passenger" depart="24.29" departLane="best" from="39436504#2" to="-218879500#2"/>
    <trip id="veh19" type="veh_passenger" depart="25.64" departLane="best" from="-39683535#1" to="144763023"/>
    <trip id="veh20" type="veh_passenger" depart="26.99" departLane="best" from="-381689884#2" to="-453997077#2"/>
    <trip id="veh21" type="veh_passenger" depart="28.34" departLane="best" from="-39393294" to="137189946#3"/>
    <trip id="veh22" type="veh_passenger" depart="29.69" departLane="best" from="39393295#9" to="170232029#2"/>
    <trip id="veh23" type="veh_passenger" depart="31.04" departLane="best" from="170232040#20" to="-39683422#4"/>
    <trip id="veh24" type="veh_passenger" depart="32.39" departLane="best" from="-95939308#3" to="730222249#3"/>
    <trip id="veh25" type="veh_passenger" depart="33.74" departLane="best" from="39433556#6" to="381689882#1"/>
    <trip id="veh26" type="veh_passenger" depart="35.09" departLane="best" from="-39436612#6" to="39436538#2"/>
    <trip id="veh27" type="veh_passenger" depart="36.44" departLane="best" from="-39436590#1" to="182487179#3"/>
    <trip id="veh28" type="veh_passenger" depart="37.79" departLane="best" from="95793050#2" to="39393295#8"/>
    <trip id="veh29" type="veh_passenger" depart="39.14" departLane="best" from="294519922#9" to="39433595#0"/>
    <trip id="veh30" type="veh_passenger" depart="40.49" departLane="best" from="45365733#1" to="39445423#1"/>
    <trip id="veh31" type="veh_passenger" depart="41.84" departLane="best" from="-39683537#3" to="-196467143#0"/>
    <trip id="veh32" type="veh_passenger" depart="43.19" departLane="best" from="149672905#0" to="103063340#0"/>
    <trip id="veh33" type="veh_passenger" depart="44.54" departLane="best" from="-39683422#5" to="856432637#1"/>
    <trip id="veh34" type="veh_passenger" depart="45.89" departLane="best" from="59285321#1" to="149586585#2"/>
    <trip id="veh35" type="veh_passenger" depart="47.24" departLane="best" from="39433561#5" to="196467159#10"/>
    <trip id="veh36" type="veh_passenger" depart="48.59" departLane="best" departSpeed="max" from="688686079#0" to="216896031#8"/>
    <trip id="veh37" type="veh_passenger" depart="49.94" departLane="best" from="-95939305" to="-580822184#2"/>
    <trip id="veh38" type="veh_passenger" depart="51.29" departLane="best" from="294519923#13" to="-95793050#4"/>
    <trip id="veh39" type="veh_passenger" depart="52.63" departLane="best" from="32636352#4" to="619292956#10"/>
    <trip id="veh40" type="veh_passenger" depart="53.98" departLane="best" from="196467159#5" to="-39683495#0"/>
    <trip id="veh41" type="veh_passenger" depart="55.33" departLane="best" from="96781394#1" to="251311714#8"/>
    <trip id="veh42" type="veh_passenger" depart="56.68" departLane="best" from="-39393255#1" to="-230415796#1"/>
    <trip id="veh43" type="veh_passenger" depart="58.03" departLane="best" from="-39433514#4" to="39393256#1"/>
    <trip id="veh44" type="veh_passenger" depart="59.38" departLane="best" from="39683373#0" to="199152206#0"/>
    <trip id="veh45" type="veh_passenger" depart="60.73" departLane="best" from="965405376#0" to="261815516"/>
    <trip id="veh47" type="veh_passenger" depart="63.43" departLane="best" from="39433603" to="26956963"/>
    <trip id="veh48" type="veh_passenger" depart="64.78" departLane="best" from="-95939308#2" to="39393296"/>
    <trip id="veh49" type="veh_passenger" depart="66.13" departLane="best" from="-39433521#0" to="216480476#2"/>
    <trip id="veh50" type="veh_passenger" depart="67.48" departLane="best" from="216480484#0" to="856432650"/>
    <trip id="veh51" type="veh_passenger" depart="68.83" departLane="best" from="59285321#0" to="-95793050#5"/>
    <trip id="veh52" type="veh_passenger" depart="70.18" departLane="best" from="251308524#4" to="-39501461#0"/>
    <trip id="veh53" type="veh_passenger" depart="71.53" departLane="best" from="684145366" to="45766796#5"/>
    <trip id="veh54" type="veh_passenger" depart="72.88" departLane="best" from="144775070#10" to="39393295#6"/>
    <trip id="veh55" type="veh_passenger" depart="74.23" departLane="best" from="381689885#1" to="-39436500#1"/>
    <trip id="veh56" type="veh_passenger" depart="75.58" departLane="best" from="39445398#2" to="26959777#1"/>
    <trip id="veh57" type="veh_passenger" depart="76.93" departLane="best" from="39683334#1" to="261815519#1"/>
    <trip id="veh58" type="veh_passenger" depart="78.28" departLane="best" from="-107719979#0" to="155009832#0"/>
    <trip id="veh59" type="veh_passenger" depart="79.63" departLane="best" from="-155009714" to="692356900#0"/>
    <trip id="veh60" type="veh_passenger" depart="80.98" departLane="best" from="59285321#13" to="39683528#0"/>
    <trip id="veh61" type="veh_passenger" depart="82.33" departLane="best" from="144776666#2" to="-251311714#15"/>
    <trip id="veh62" type="veh_passenger" depart="83.68" departLane="best" from="59285321#12" to="856432645#2"/>
    <trip id="veh63" type="veh_passenger" depart="85.03" departLane="best" from="-39393242#1" to="251308510#3"/>
    <trip id="veh64" type="veh_passenger" depart="86.38" departLane="best" from="-375809348#12" to="39436612#2"/>
    <trip id="veh65" type="veh_passenger" depart="87.72" departLane="best" departSpeed="max" from="39445423#0" to="-39433589#4"/>
    <trip id="veh66" type="veh_passenger" depart="89.07" departLane="best" from="231774696#7" to="275655298#2"/>
    <trip id="veh67" type="veh_passenger" depart="90.42" departLane="best" from="-95939305" to="45766798#1"/>
    <trip id="veh68" type="veh_passenger" depart="91.77" departLane="best" from="199152230#1" to="-39683425#1"/>
    <trip id="veh69" type="veh_passenger" depart="93.12" departLane="best" from="26959785#0" to="39436538#4"/>
    <trip id="veh70" type="veh_passenger" depart="94.47" departLane="best" from="-39683408#2" to="147237364#2"/>
    <trip id="veh71" type="veh_passenger" depart="95.82" departLane="best" from="965405374#0" to="39433521#0"/>
    <trip id="veh72" type="veh_passenger" depart="97.17" departLane="best" from="216480479#2" to="258863042#1"/>
    <trip id="veh73" type="veh_passenger" depart="98.52" departLane="best" from="157862107#2" to="32636352#1"/>
    <trip id="veh74" type="veh_passenger" depart="99.87" departLane="best" from="-39683538#0" to="-39683501"/>
    <trip id="veh75" type="veh_passenger" depart="101.22" departLane="best" from="-375809348#15" to="39393273"/>
    <trip id="veh76" type="veh_passenger" depart="102.57" departLane="best" from="-39683537#3" to="619292956#22"/>
    <trip id="veh77" type="veh_passenger" depart="103.92" departLane="best" from="45763025#6" to="-375809348#16"/>
    <trip id="veh78" type="veh_passenger" depart="105.27" departLane="best" from="-45644146#2" to="39433582#3"/>
    <trip id="veh79" type="veh_passenger" depart="106.62" departLane="best" from="-39683431#0" to="-39433594#1"/>
    <trip id="veh80" type="veh_passenger" depart="107.97" departLane="best" departSpeed="max" from="787569324#0" to="294519923#3"/>
    <trip id="veh82" type="veh_passenger" depart="110.67" departLane="best" from="-39393275#0" to="213526441#9"/>
    <trip id="veh83" type="veh_passenger" depart="112.02" departLane="best" from="199152230#2" to="217100677#7"/>
    <trip id="veh84" type="veh_passenger" depart="113.37" departLane="best" from="39436572#1" to="39433590#5"/>
    <trip id="veh85" type="veh_passenger" depart="114.72" departLane="best" from="952392261" to="-39393276#1"/>
    <trip id="veh86" type="veh_passenger" depart="116.07" departLane="best" from="199152190#2" to="157862107#3"/>
    <trip id="veh87" type="veh_passenger" depart="117.42" departLane="best" from="45766796#2" to="-684145380#0"/>
    <trip id="veh88" type="veh_passenger" depart="118.77" departLane="best" from="-39683368#1" to="216480483#3"/>
    <trip id="veh89" type="veh_passenger" depart="120.12" departLane="best" from="199152206#1" to="137189946#4"/>
    <trip id="veh90" type="veh_passenger" depart="121.46" departLane="best" from="-684145380#0" to="688686080#8"/>
    <trip id="veh93" type="veh_passenger" depart="125.51" departLane="best" from="98727610#1" to="39683538#1"/>
    <trip id="veh94" type="veh_passenger" depart="126.86" departLane="best" from="89849995#1" to="692356898#1"/>
    <trip id="veh95" type="veh_passenger" depart="128.21" departLane="best" from="45642813#1" to="-39436606#1"/>
    <trip id="veh96" type="veh_passenger" depart="129.56" departLane="best" from="245926142#2" to="-39683431#1"/>
    <trip id="veh97" type="veh_passenger" depart="130.91" departLane="best" from="199152190#0" to="-251311714#2"/>
    <trip id="veh98" type="veh_passenger" depart="132.26" departLane="best" departSpeed="max" from="182487179#0" to="952548695#0"/>
    <trip id="veh99" type="veh_passenger" depart="133.61" departLane="best" from="-95939305" to="39655538#0"/>
    <trip id="veh100" type="veh_passenger" depart="134.96" departLane="best" from="216480484#3" to="199152206#1"/>
    <trip id="veh101" type="veh_passenger" depart="136.31" departLane="best" from="886386617#2" to="965405374#2"/>
    <trip id="veh102" type="veh_passenger" depart="137.66" departLane="best" from="294519922#7" to="39436509#0"/>
    <trip id="veh103" type="veh_passenger" depart="139.01" departLane="best" from="896047307" to="306095928#1"/>
    <trip id="veh104" type="veh_passenger" depart="140.36" departLane="best" from="27085402#11" to="39436597#1"/>
    <trip id="veh105" type="veh_passenger" depart="141.71" departLane="best" from="-251311714#10" to="306838996#4"/>
    <trip id="veh106" type="veh_passenger" depart="143.06" departLane="best" from="251308527#3" to="453997080"/>
    <trip id="veh107" type="veh_passenger" depart="144.41" departLane="best" from="-39436538#2" to="886645247#0"/>
    <trip id="veh108" type="veh_passenger" depart="145.76" departLane="best" from="-381689884#2" to="-39683342#5"/>
    <trip id="veh109" type="veh_passenger" depart="147.11" departLane="best" from="375809348#16" to="39433591#2"/>
    <trip id="veh110" type="veh_passenger" depart="148.46" departLane="best" from="-45642813#0" to="-39433561#2"/>
    <trip id="veh111" type="veh_passenger" depart="149.81" departLane="best" from="619292956#11" to="-580822184#1"/>
    <trip id="veh112" type="veh_passenger" depart="151.16" departLane="best" from="375809348#15" to="381689887#5"/>
    <trip id="veh113" type="veh_passenger" depart="152.51" departLane="best" from="199152194#4" to="306838996#3"/>
    <trip id="veh114" type="veh_passenger" depart="153.86" departLane="best" from="-39683411" to="39436507#8"/>
    <trip id="veh115" type="veh_passenger" depart="155.21" departLane="best" from="-45644146#4" to="196467159#10"/>
    <trip id="veh116" type="veh_passenger" depart="156.55" departLane="best" from="39433592#1" to="144775070#14"/>
    <trip id="veh117" type="veh_passenger" depart="157.90" departLane="best" from="149672905#3" to="39436602#0"/>
    <trip id="veh118" type="veh_passenger" depart="159.25" departLane="best" from="-375809348#18" to="216896031#7"/>
    <trip id="veh119" type="veh_passenger" depart="160.60" departLane="best" from="96781394#2" to="965405376#0"/>
    <trip id="veh120" type="veh_passenger" depart="161.95" departLane="best" from="-375809348#2" to="-39683431#0"/>
    <trip id="veh121" type="veh_passenger" depart="163.30" departLane="best" from="-95939305" to="692488024"/>
    <trip id="veh122" type="veh_passenger" depart="164.65" departLane="best" from="59285321#17" to="53154970#1"/>
    <trip id="veh123" type="veh_passenger" depart="166.00" departLane="best" from="170232040#19" to="-39436538#4"/>
    <trip id="veh124" type="veh_passenger" depart="167.35" departLane="best" from="381689886#1" to="95793042#1"/>
    <trip id="veh125" type="veh_passenger" depart="168.70" departLane="best" from="39433561#2" to="-137189946#5"/>
    <trip id="veh126" type="veh_passenger" depart="170.05" departLane="best" from="39683439#2" to="144775070#14"/>
    <trip id="veh127" type="veh_passenger" depart="171.40" departLane="best" from="39433589#1" to="787569324#2"/>
    <trip id="veh128" type="veh_passenger" depart="172.75" departLane="best" from="-39433595#0" to="-39433558#3"/>
    <trip id="veh129" type="veh_passenger" depart="174.10" departLane="best" from="107719979#2" to="381689878"/>
    <trip id="veh130" type="veh_passenger" depart="175.45" departLane="best" from="39436516#4" to="-39683412#0"/>
    <trip id="veh131" type="veh_passenger" depart="176.80" departLane="best" from="39393295#5" to="-95939305"/>
    <trip id="veh132" type="veh_passenger" depart="178.15" departLane="best" from="453997078#1" to="-39393256#2"/>
    <trip id="veh133" type="veh_passenger" depart="179.50" departLane="best" from="199152230#2" to="136938168#4"/>
    <trip id="veh134" type="veh_passenger" depart="180.85" departLane="best" from="-107771170#2" to="39445398#2"/>
    <trip id="veh135" type="veh_passenger" depart="182.20" departLane="best" from="39393298" to="-95793050#2"/>
    <trip id="veh136" type="veh_passenger" depart="183.55" departLane="best" from="39436597#5" to="282647403#3"/>
    <trip id="veh137" type="veh_passenger" depart="184.90" departLane="best" departSpeed="max" from="213526441#0" to="-139633245#1"/>
    <trip id="veh138" type="veh_passenger" depart="186.25" departLane="best" from="-375809348#5" to="584075983"/>
    <trip id="veh139" type="veh_passenger" depart="187.60" departLane="best" departSpeed="max" from="651066494#0" to="27085402#14"/>
    <trip id="veh140" type="veh_passenger" depart="188.95" departLane="best" from="415221611#2" to="306838996#0"/>
    <trip id="veh141" type="veh_passenger" depart="190.30" departLane="best" from="-39433624#5" to="-39433589#1"/>
    <trip id="veh142" type="veh_passenger" depart="191.64" departLane="best" from="147237362#1" to="619292956#12"/>
    <trip id="veh144" type="veh_passenger" depart="194.34" departLane="best" from="619292956#28" to="-39683422#5"/>
    <trip id="veh145" type="veh_passenger" depart="195.69" departLane="best" from="-684145380#0" to="-39393295#4"/>
    <trip id="veh146" type="veh_passenger" depart="197.04" departLane="best" from="39683334#6" to="59285321#1"/>
    <trip id="veh147" type="veh_passenger" depart="198.39" departLane="best" from="199152191#1" to="39383378#1"/>
    <trip id="veh148" type="veh_passenger" depart="199.74" departLane="best" from="-39436505#2" to="692356900#2"/>
    <trip id="veh149" type="veh_passenger" depart="201.09" departLane="best" from="45766798#1" to="924844760"/>
    <trip id="veh150" type="veh_passenger" depart="202.44" departLane="best" from="39683422#6" to="571883566"/>
    <trip id="veh151" type="veh_passenger" depart="203.79" departLane="best" from="-170232040#13" to="39436572#3"/>
    <trip id="veh152" type="veh_passenger" depart="205.14" departLane="best" from="155235379#0" to="692356900#4"/>
    <trip id="veh153" type="veh_passenger" depart="206.49" departLane="best" from="39683409#1" to="45763023#2"/>
    <trip id="veh154" type="veh_passenger" depart="207.84" departLane="best" from="39683422#6" to="-98727610#1"/>
    <trip id="veh155" type="veh_passenger" depart="209.19" departLane="best" from="39683342#8" to="-39433514#0"/>
    <trip id="veh156" type="veh_passenger" depart="210.54" departLane="best" from="53154970#2" to="45644146#7"/>
    <trip id="veh157" type="veh_passenger" depart="211.89" departLane="best" from="-39683506#2" to="39683422#5"/>
    <trip id="veh158" type="veh_passenger" depart="213.24" departLane="best" from="216896031#7" to="144775072#4"/>
    <trip id="veh159" type="veh_passenger" depart="214.59" departLane="best" from="39683375#3" to="-39683537#2"/>
    <trip id="veh160" type="veh_passenger" depart="215.94" departLane="best" from="-170232040#10" to="-39683373#4"/>
    <trip id="veh161" type="veh_passenger" depart="217.29" departLane="best" from="155235354#0" to="45763024#1"/>
    <trip id="veh162" type="veh_passenger" depart="218.64" departLane="best" departSpeed="max" from="893372315" to="137189946#5"/>
    <trip id="veh163" type="veh_passenger" depart="219.99" departLane="best" from="393957072" to="199152190#0"/>
    <trip id="veh164" type="veh_passenger" depart="221.34" departLane="best" from="952392256" to="264976793"/>
    <trip id="veh165" type="veh_passenger" depart="222.69" departLane="best" from="856432637#0" to="-39433558#3"/>
    <trip id="veh166" type="veh_passenger" depart="224.04" departLane="best" from="89882383#2" to="-39501461#0"/>
    <trip id="veh167" type="veh_passenger" depart="225.39" departLane="best" from="887586455" to="-95939308#2"/>
    <trip id="veh168" type="veh_passenger" depart="226.73" departLane="best" from="-39433514#0" to="216480472#7"/>
    <trip id="veh169" type="veh_passenger" depart="228.08" departLane="best" from="39436571" to="149586584#0"/>
    <trip id="veh170" type="veh_passenger" depart="229.43" departLane="best" from="-730222249#2" to="39436499"/>
    <trip id="veh171" type="veh_passenger" depart="230.78" departLane="best" from="-107771166#0" to="689794343#2"/>
    <trip id="veh172" type="veh_passenger" depart="232.13" departLane="best" from="26959777#1" to="39436510#1"/>
    <trip id="veh173" type="veh_passenger" depart="233.48" departLane="best" from="39436598#1" to="39433589#3"/>
    <trip id="veh174" type="veh_passenger" depart="234.83" departLane="best" from="170232029#1" to="-375809348#14"/>
    <trip id="veh175" type="veh_passenger" depart="236.18" departLane="best" from="39433589#3" to="155235356#0"/>
    <trip id="veh176" type="veh_passenger" depart="237.53" departLane="best" from="39436525#0" to="144775070#14"/>
    <trip id="veh177" type="veh_passenger" depart="238.88" departLane="best" from="147237362#4" to="199152191#5"/>
    <trip id="veh178" type="veh_passenger" depart="240.23" departLane="best" from="199152190#2" to="144763035#3"/>
    <trip id="veh179" type="veh_passenger" depart="241.58" departLane="best" from="-39433589#0" to="199152194#4"/>
    <trip id="veh180" type="veh_passenger" depart="242.93" departLane="best" from="856432637#1" to="39433591#7"/>
    <trip id="veh181" type="veh_passenger" depart="244.28" departLane="best" from="619292956#9" to="381689885#7"/>
    <trip id="veh182" type="veh_passenger" depart="245.63" departLane="best" from="144775070#5" to="275655287#2"/>
    <trip id="veh183" type="veh_passenger" depart="246.98" departLane="best" from="-107719969" to="139633247#3"/>
    <trip id="veh184" type="veh_passenger" depart="248.33" departLane="best" departSpeed="max" from="213526441#0" to="306675282#0"/>
    <trip id="veh185" type="veh_passenger" depart="249.68" departLane="best" from="39433561#4" to="217100677#11"/>
    <trip id="veh186" type="veh_passenger" depart="251.03" departLane="best" from="216480480#7" to="-39683431#1"/>
    <trip id="veh187" type="veh_passenger" depart="252.38" departLane="best" from="231774696#1" to="619292956#16"/>
    <trip id="veh188" type="veh_passenger" depart="253.73" departLane="best" from="39683375#4" to="-39436612#5"/>
    <trip id="veh189" type="veh_passenger" depart="255.08" departLane="best" from="-39383377#1" to="258834782#2"/>
    <trip id="veh190" type="veh_passenger" depart="256.43" departLane="best" from="39393295#2" to="155235380#1"/>
    <trip id="veh191" type="veh_passenger" depart="257.78" departLane="best" from="39683451" to="39436601#0"/>
    <trip id="veh192" type="veh_passenger" depart="259.13" departLane="best" from="39433593#1" to="-39683515#1"/>
    <trip id="veh193" type="veh_passenger" depart="260.47" departLane="best" from="-53154970#2" to="236959053#2"/>
    <trip id="veh194" type="veh_passenger" depart="261.82" departLane="best" from="45642813#3" to="-375809348#2"/>
    <trip id="veh195" type="veh_passenger" depart="263.17" departLane="best" from="199152192#2" to="39393272#1"/>
    <trip id="veh196" type="veh_passenger" depart="264.52" departLane="best" from="-39683375#0" to="39433614#2"/>
    <trip id="veh197" type="veh_passenger" depart="265.87" departLane="best" from="251308515#4" to="-53154970#4"/>
    <trip id="veh198" type="veh_passenger" depart="267.22" departLane="best" from="39436610#2" to="39445388"/>
    <trip id="veh199" type="veh_passenger" depart="268.57" departLane="best" from="-39393298" to="199152230#2"/>
    <trip id="veh200" type="veh_passenger" depart="269.92" departLane="best" from="258834782#0" to="-245926142#6"/>
    <trip id="veh201" type="veh_passenger" depart="271.27" departLane="best" from="-67113649#1" to="45365733#1"/>
    <trip id="veh202" type="veh_passenger" depart="272.62" departLane="best" from="216896031#0" to="39683375#3"/>
    <trip id="veh203" type="veh_passenger" depart="273.97" departLane="best" from="39433590#7" to="95793047#0"/>
    <trip id="veh204" type="veh_passenger" depart="275.32" departLane="best" from="375809348#16" to="856432645#8"/>
    <trip id="veh205" type="veh_passenger" depart="276.67" departLane="best" from="619292956#12" to="381689884#3"/>
    <trip id="veh206" type="veh_passenger" depart="278.02" departLane="best" from="39436524#1" to="251311713#0"/>
    <trip id="veh207" type="veh_passenger" depart="279.37" departLane="best" from="407608718" to="275655287#2"/>
    <trip id="veh208" type="veh_passenger" depart="280.72" departLane="best" from="619292956#22" to="39436582#1"/>
    <trip id="veh209" type="veh_passenger" depart="282.07" departLane="best" from="231774696#5" to="-95793041#1"/>
    <trip id="veh210" type="veh_passenger" depart="283.42" departLane="best" from="-580822184#1" to="39393295#2"/>
    <trip id="veh211" type="veh_passenger" depart="284.77" departLane="best" departSpeed="max" from="39445423#0" to="258863042#6"/>
    <trip id="veh212" type="veh_passenger" depart="286.12" departLane="best" from="39393274" to="116596180"/>
    <trip id="veh213" type="veh_passenger" depart="287.47" departLane="best" from="-381689882#1" to="139633247#0"/>
    <trip id="veh214" type="veh_passenger" depart="288.82" departLane="best" from="107719979#0" to="149672908#3"/>
    <trip id="veh215" type="veh_passenger" depart="290.17" departLane="best" from="26959785#4" to="-39433605#1"/>
    <trip id="veh216" type="veh_passenger" depart="291.52" departLane="best" from="-453997073" to="39433608"/>
    <trip id="veh217" type="veh_passenger" depart="292.87" departLane="best" from="39436505#2" to="-27085402#9"/>
    <trip id="veh218" type="veh_passenger" depart="294.22" departLane="best" from="199152191#12" to="26960357#0"/>
    <trip id="veh219" type="veh_passenger" depart="295.56" departLane="best" from="199152193#3" to="-39683418#1"/>
    <trip id="veh220" type="veh_passenger" depart="296.91" departLane="best" from="199152204#1" to="619292956#21"/>
    <trip id="veh221" type="veh_passenger" depart="298.26" departLane="best" from="32636352#2" to="39433613"/>
    <trip id="veh222" type="veh_passenger" depart="299.61" departLane="best" from="45763024#1" to="39436621#0"/>
    <trip id="veh223" type="veh_passenger" depart="300.96" departLane="best" from="182487179#1" to="-137189946#1"/>
    <trip id="veh224" type="veh_passenger" depart="302.31" departLane="best" from="159474233#1" to="39436603#5"/>
    <trip id="veh225" type="veh_passenger" depart="303.66" departLane="best" from="45644146#8" to="856432650"/>
    <trip id="veh226" type="veh_passenger" depart="305.01" departLane="best" from="199152194#4" to="39436594#1"/>
    <trip id="veh227" type="veh_passenger" depart="306.36" departLane="best" from="275655298#1" to="375809348#5"/>
    <trip id="veh228" type="veh_passenger" depart="307.71" departLane="best" from="216480472#7" to="-170232040#5"/>
    <trip id="veh229" type="veh_passenger" depart="309.06" departLane="best" from="157862107#0" to="39433592#3"/>
    <trip id="veh230" type="veh_passenger" depart="310.41" departLane="best" from="199152190#5" to="-39436603#4"/>
    <trip id="veh231" type="veh_passenger" depart="311.76" departLane="best" from="217100677#2" to="-39433589#2"/>
    <trip id="veh232" type="veh_passenger" depart="313.11" departLane="best" from="39393256#0" to="-170232040#19"/>
    <trip id="veh233" type="veh_passenger" depart="314.46" departLane="best" from="-170232040#19" to="39393302#0"/>
    <trip id="veh234" type="veh_passenger" depart="315.81" departLane="best" from="-39433595#3" to="217090091#0"/>
    <trip id="veh235" type="veh_passenger" depart="317.16" departLane="best" from="-245926142#6" to="182487179#2"/>
    <trip id="veh236" type="veh_passenger" depart="318.51" departLane="best" from="-39683423" to="155224464#0"/>
    <trip id="veh237" type="veh_passenger" depart="319.86" departLane="best" from="39445387#3" to="182487179#2"/>
    <trip id="veh238" type="veh_passenger" depart="321.21" departLane="best" from="39436612#1" to="39683528#1"/>
    <trip id="veh239" type="veh_passenger" depart="322.56" departLane="best" from="-692356899#0" to="-381689887#0"/>
    <trip id="veh240" type="veh_passenger" depart="323.91" departLane="best" from="-155009714" to="26959777#1"/>
    <trip id="veh241" type="veh_passenger" depart="325.26" departLane="best" from="39433558#4" to="39501457#0"/>
    <trip id="veh242" type="veh_passenger" depart="326.61" departLane="best" from="39433560#1" to="39436604#0"/>
    <trip id="veh243" type="veh_passenger" depart="327.96" departLane="best" from="856432646" to="-39683408#0"/>
    <trip id="veh244" type="veh_passenger" depart="329.31" departLane="best" from="-155009832#1" to="-39436500#0"/>
    <trip id="veh245" type="veh_passenger" depart="330.65" departLane="best" from="-39433579#1" to="39433589#0"/>
    <trip id="veh246" type="veh_passenger" depart="332.00" departLane="best" from="294519923#15" to="-39683451"/>
    <trip id="veh247" type="veh_passenger" depart="333.35" departLane="best" from="39436439#2" to="39436622#2"/>
    <trip id="veh248" type="veh_passenger" depart="334.70" departLane="best" from="-39436606#3" to="381689881"/>
    <trip id="veh249" type="veh_passenger" depart="336.05" departLane="best" from="39436606#2" to="-39433557#0"/>
    <trip id="veh250" type="veh_passenger" depart="337.40" departLane="best" from="39683495#0" to="887586455"/>
    <trip id="veh251" type="veh_passenger" depart="338.75" departLane="best" from="-39393303#0" to="-170232040#15"/>
    <trip id="veh252" type="veh_passenger" depart="340.10" departLane="best" from="886386618#1" to="196467159#2"/>
    <trip id="veh253" type="veh_passenger" depart="341.45" departLane="best" from="39436510#5" to="-375809348#8"/>
    <trip id="veh254" type="veh_passenger" depart="342.80" departLane="best" from="39433617" to="39393256#0"/>
    <trip id="veh255" type="veh_passenger" depart="344.15" departLane="best" from="-39393295#1" to="39445398#6"/>