<?xml version="1.0" encoding="UTF-8"?>

<!-- generated on 2022-01-31 11:48:40 by Eclipse SUMO duarouter Version 1.9.2
<configuration xmlns:xsi="http://www.w3.org/2001/XMLSchema-instance" xsi:noNamespaceSchemaLocation="http://sumo.dlr.de/xsd/duarouterConfiguration.xsd">

    <input>
        <net-file value="osm.net.xml"/>
        <route-files value="osm.pedestrian.trips.xml"/>
    </input>

    <output>
        <output-file value="osm.pedestrian.rou.xml"/>
        <alternatives-output value="osm.pedestrian.rou.alt.xml"/>
    </output>

    <time>
        <begin value="0"/>
        <end value="3600"/>
    </time>

    <report>
        <no-warnings value="true"/>
        <ignore-errors value="true"/>
        <no-step-log value="true"/>
    </report>

</configuration>
-->

<routes xmlns:xsi="http://www.w3.org/2001/XMLSchema-instance" xsi:noNamespaceSchemaLocation="http://sumo.dlr.de/xsd/routes_file.xsd">
    <vType id="ped_pedestrian" vClass="pedestrian"/>
    <person id="ped0" type="ped_pedestrian" depart="0.00">
        <walk edges="572505820#1 39433556#5 39433556#6 39433556#8 -67113649#1 67113649#0 275655298#0 251304143 258834782#2 258834782#1 258834782#0 381689878 381689881 381689880 381689879 381689882#4 381689882#3 39436437#1 39436437#0 103063339 103063342 691680980#0 691680979 923371383 155235376#2 666211017#0 692356901#2 245926142#10 245926142#7 245926142#6 670609940#0 389335197#3 -245926142#2"/>
    </person>
    <person id="ped1" type="ped_pedestrian" depart="1.23">
        <walk edges="231774696#4 39436580#1 39436580#2 39436580#3 155235354#1 39436524#0 39436524#1 103065742#0 103065742#1 103065742#2 103065742#3 39436507#3 39436575#2 39436575#1 -144775072#3 39436576#1 184723799 184723802#6 184723798#0 184723798#1 184723798#2 184723798#3"/>
    </person>
    <person id="ped2" type="ped_pedestrian" depart="2.45">
        <walk edges="619369677#1 619369674#1 169403138#0 886386617#2 886386617#0 137189951#1 137189951#0 39501449#2 39501449#1 294519922#7 245926142#0 245926142#1 245926142#2 389335197#3 670609940#0 245926142#6 245926142#7 245926142#10 692356901#2 666211017#0 155235376#2 923371383 691680979 691680980#0 103063342 103063339 39436437#0 39436437#1 170232048#0 170232048#1 170232044#0 887586456 887586458 -144763014 -261815503#1 572498048#0 -666208844#3 184295739#7 184295739#6 184295739#5 184295739#4 184295739#3 184295739#2 573210043"/>
    </person>
    <person id="ped3" type="ped_pedestrian" depart="3.68">
        <walk edges="673877262#0 155235372#7 670817238#0 887779307#0 887779307#1 670938288#2 -375809348#18 -375809348#17 -375809348#16 375809348#15 375809348#14 670945704#0 243007652#9 670945705 157660783#1 -170232040#10 -170232040#11 -170232040#12 -39683368#0 -39683368#1 -39683368#3 -39683368#4"/>
    </person>
    <person id="ped4" type="ped_pedestrian" depart="4.91">
        <walk edges="39436607#1 39436607#0 149586585#2 312409074#2 312409074#1 72457420#0 -692356899#1 -692356899#0 -265376980 39436591#2 39436603#1 39436603#3 39436603#4 39436603#5 39436603#6 155235366 39436613#0 666208507#1 856432637#1 155235390 856432638#0 230396606#4 670997514#2 952392255 952392256 251308530 -27085402#16 -27085402#15 -27085402#14"/>
    </person>
    <person id="ped5" type="ped_pedestrian" depart="6.14">
        <walk edges="184298557#2 184298557#1 184298557#9 214212123 687789971#0 744765795 583899270 583899268 571949720#3 571949720#2 575384555 571949709#1 571949709#2 571949718#1 54048200#0 54048200#1 583722968#1 583722968#2 54044213 583703365 583703363 54046374 54046375 54046370"/>
    </person>
    <person id="ped6" type="ped_pedestrian" depart="7.36">
        <walk edges="-251308527#4 251308527#5 199152194#0 619369668#1 169403138#2"/>
    </person>
    <person id="ped8" type="ped_pedestrian" depart="9.82">
        <walk edges="184298559#10 184298559#11 184298559#12 572345498#0 170232025#2 170232025#3 572345506#2 572510159#2 687732744#0 687732743 687732758 184297768#3 572345470#1 45766800#2 572345473#2 184297776#3 572345469 184297770#1 184297770#2 184297770#3 184297770#4 572345468#1 572215783#0"/>
    </person>
    <person id="ped9" type="ped_pedestrian" depart="11.05">
        <walk edges="670754145#0 670754145#1 670754145#2 670754145#3 666211021#2 688667604 691579105#0 690580488 690580489 155224463#6 666211008#0 139633245#0 -245926142#10 670609943#1 209559112#2 39436591#2 39436591#1 -144775072#1 -144775072#2 -144775072#3"/>
    </person>
    <person id="ped10" type="ped_pedestrian" depart="12.27">
        <walk edges="670747648 670747665#1 670747665#0 670757192#4 670757192#5 670757192#6 670757192#7 670757192#8 670757192#9 670754145#0 670754145#1 670754145#2 670754145#3 666211021#2 666211021#1 670992442#1 670992442#0 670992443#0 670992443#1 670997242#7 670994730 673651509#3 673651509#2 673651509#1 673651509#0 572345513#0 572345513#1 572345513#2 572345513#3 572345513#4 572345513#5 572345513#6 572345513#7 572345513#8 572345513#9 572345513#10 572345513#11 572345513#12 572345513#13 572345513#14 572345513#15 572345513#16 583899278#0 583899278#1 573113726#1 573113726#0 573113724 573113725 571949711#0 89877486 583722966#2"/>
    </person>
    <person id="ped11" type="ped_pedestrian" depart="13.50">
        <walk edges="331618097#5 39436538#2 318034646#1 318034646#0 144770128 154999907#1 154999907#2 154999907#3 184723799 155009714 155009716#0 155009716#1 155009716#2 478447618#0 478539640#1 39436591#1 39436591#2 209559112#2 670609943#1 -245926142#10 692356901#2 666211017#0 155235376#2 923371383 691680979 691680980#0 103063342 103063339 39436437#0 39436437#1 381689882#3 381689882#4 381689879 381689880 381689881 381689878 144776662#0"/>
    </person>
    <person id="ped12" type="ped_pedestrian" depart="14.73">
        <walk edges="72457417#2 -692356899#1 72457420#0 312409074#1 312409074#2 312409074#3 312409074#4 312409074#5 39436604#2 39436604#3 328098132#0 328098130#0"/>
    </person>
    <person id="ped13" type="ped_pedestrian" depart="15.96">
        <walk edges="-39683410#2 -39683410#1 39683414 -39683412#1 -39683342#1 -39683342#3 -39683342#5 -39683342#6 -39683425#1 39683407#5 -39683426"/>
    </person>
    <person id="ped14" type="ped_pedestrian" depart="17.18">
        <walk edges="670957149#0 155235372#8 155235372#7 670817238#0 887779307#0 887779307#1 670938288#2 670938288#0 691671331#0 691671331#1 39433564#0 -39433563 39433561#1 -730222249#1 -730222249#2 -730222249#3 -730222249#4 39436451#3 39436451#2 39436451#1 572345506#2 572510159#2 687732744#0 687732743 687732758 184297768#3 572345470#1 45766800#2 572345473#2 184297776#3 572345469 184297770#1 687732762#1 687732762#0 583924039 572345513#5 572345513#6 572345513#7 572345513#8 572345513#9 572345513#10 572345513#11 572345513#12 572345513#13 572345513#14 572345513#15 572345513#16 572345513#17 572345513#18 572345513#19 572330879#2"/>
    </person>
    <person id="ped15" type="ped_pedestrian" depart="18.41">
        <walk edges="670747665#1 670747665#0 670757192#4 670757192#5 670757192#6 670757192#7 670757192#8 670757192#9 670754145#0 670754145#1 670754145#2 670754145#3 666211021#2 666211021#1 670992442#1 670992442#0 670992443#0 670992443#1 670997242#6 687789977 670967780 687171767 850052786#2 670818664#0 670818664#1 670818664#2 850052789#0 687171772#1 170232044#1 170232044#0 887586456 887586453 144763023 619292956#29 230562269#1 230562269#2 230562269#3 230562269#4 230562269#5 230562269#6 619292956#21 619292956#20 619292956#19"/>
    </person>
    <person id="ped16" type="ped_pedestrian" depart="19.64">
        <walk edges="541852670 541852672#6 157165825#8 541852672#1 157165825#10 157165825#11 541933040#10 243007651 670817238#3 670817238#2 670817238#1 670817238#0 887779307#0 887779307#1 230395550#0 393957069#1 673644675#1 144763035#4 275655298#0 275655298#1 275655298#2 275655298#3 275655298#4 216480481#1 261815516 251455095 170232052 670817241#1 666208838#1 850039870#1 666208838#8 666208838#7 666208838#6 850303206#1 850307484#1"/>
    </person>
    <person id="ped17" type="ped_pedestrian" depart="20.87">
        <walk edges="39433561#2 39433563 39433564#0 691671331#1 670938289#0 670938289#1 670938289#2 209678413#1 670938436#0 670938436#1 670957148#0 243007651 541933040#10 541933040#9"/>
    </person>
    <person id="ped18" type="ped_pedestrian" depart="22.09">
        <walk edges="670818658 666208838#3 572498050#0 144776663#3 886645247#0 886645247#1 251311714#1 251311714#2 251311714#3 251311714#6 -251311714#7 -251311714#8 572505822#0 572505818#4 572505826#2 572505826#1 26959791#1 170232025#3 572345501#0"/>
    </person>
    <person id="ped19" type="ped_pedestrian" depart="23.32">
        <walk edges="670995220#0 670995222 670995224 670995223 670966092 670966091 670963767 670956323#1 670956322 687121728 687121730#0 691671332#5 144763035#2 -39433557#0 730222249#0 -730222249#1 -730222249#2 -730222249#3 -730222249#4 39436451#3 39436451#2 39436451#1 236959054#0 236959052#1 572330877#2 572345513#21 572583080 571949714#3 571949716 571949714#1"/>
    </person>
    <person id="ped20" type="ped_pedestrian" depart="24.55">
        <walk edges="583899344#0 583899344#1 583899344#2 583899344#3 583899344#4 573104778 583899319#0 572558403#0 572558403#1 89882383#1 572330903#10 572330903#9 572330903#8 572330903#7 572330903#6 36990137#2 36990137#1 95939308#3 95939308#2 95939308#1 95939308#0 95939305 381689884#6 572330859#8 572558422#0 381689884#3 381689884#2 381689884#1 381689884#0 216480480#8 -39393275#0"/>
    </person>
    <person id="ped21" type="ped_pedestrian" depart="25.78">
        <walk edges="196467148#0 196467159#2 39436507#8 39436507#7 39436507#6 39436507#5 39436507#4 39436507#3 39436507#2 39436507#1 856432645#8 478539641 542310815#0 542310815#1 542310816#1 542310816#2 542310816#3 542310814#0 294519923#17 886233771 856432647 856432648 856432638#0 103063340#1 103063344#0 103063344#1 103063344#2 230396606#0 381689882#3 381689882#4 381689879 381689880 381689881 381689878 258834782#0 258834782#1 258834782#2 251304143 275655298#0 67113649#0 67113649#1 -39433556#8 -39433556#6 -39433560#3 -39433560#2 -730222249#2 -730222249#3 -730222249#4 251311714#10"/>
    </person>
    <person id="ped22" type="ped_pedestrian" depart="27.00">
        <walk edges="-39501450#1 619369672#1 670746209#1 666208500#2 666208500#1 666208500#0 886386619 666208499#11 666208499#10 666208499#9 39501454#3 199152191#3"/>
    </person>
    <person id="ped23" type="ped_pedestrian" depart="28.23">
        <walk edges="-39683507 -39683361#2 -39683361#1 -39683361#0 39683334#8 209758753#0 209758753#1 209758753#2 209678411#4 209758752#1 209758751 209758750 572510161#8 -157666053#1 572558415#1 572510161#16 572558411#1 95939308#3 36990137#1 36990137#2 572330903#6 572330903#7 572330903#8 572330903#9 572330903#10 89882383#1 89882383#2 572330903#13 572330903#14 583899310 583899313#1 583899313#2 583899313#3 242897853#0"/>
    </person>
    <person id="ped24" type="ped_pedestrian" depart="29.46">
        <walk edges="572498073#4 -251311714#3 39433556#2 39436452#1 39436452#0 39436451#1 236959054#0 236959052#1 89849995#1 216480484#5 216480484#4 39393257#2 39393256#0 39393255#0"/>
    </person>
    <person id="ped25" type="ped_pedestrian" depart="30.68">
        <walk edges="39393295#3 39393275#3 -39393294 39393275#1 -216480480#8 -381689884#0 -381689884#1 -381689884#2 -381689884#3 -381689884#6 -95939305 -95939308#0 95939308#1 95939308#2 95939308#3 36990137#1 36990137#2 572330903#6 572330903#7 572330903#8 572330903#9 572330903#10 89882383#1 89882383#2 572330903#13 572330903#14 583899310 583899313#1 583899313#2 583899313#3 45763023#2 251308523#2 251308523#3 39383378#1 572330899#0 184295739#9"/>
    </person>
    <person id="ped26" type="ped_pedestrian" depart="31.91">
        <walk edges="229076839#2 229076839#3 27817378#0 360184151#3 23630623 670733025#0 670746213#0 926090812#3 886386617#2 886386617#0 137189951#1 137189951#0 39501449#2 39501449#1 294519922#7 245926142#0 245926142#1 245926142#2 389335197#3 670609940#0 245926142#6 245926142#7 245926142#10 692356901#2 666211017#0 155235376#2 923371383 691680979 691680980#0 103063342 103063339 39436437#0 39436437#1 170232048#0 170232048#1 170232044#0 887586456 59285321#0 59285321#1 59285321#5 59285321#6 59285321#7 59285321#8 59285321#9 59285321#10 59285321#12 59285321#13 59285321#14 59285321#15 59285321#16 59285321#17 59285321#18 59285321#19 45644146#1 687873168#1"/>
    </person>
    <person id="ped27" type="ped_pedestrian" depart="33.14">
        <walk edges="572510160#1 687789971#0 744765795 583899270 583899268 571949720#4 571949720#5 572330903#7 572330903#8 572330903#9 572330903#10 572330903#11 572330903#12"/>
    </person>
    <person id="ped28" type="ped_pedestrian" depart="34.37">
        <walk edges="155009840#1 155009841#1 155009835 155009834 144775070#2 -155009832#4 -155009832#3 -155009832#2 -155009832#1 -155009832#0 155009716#0 155009716#1 155009716#2 478447618#0 478539640#1 856432645#9 856432645#8 856432645#6 856432645#3 856432645#2 856432645#0 952548695#1 952548695#0 952392261 18570435#1 18570435#0 886233768 415221610#2 415221610#1 415221610#0 619292956#29 230562269#1 230562269#2 230562269#3 230562269#4 230562269#5 230562269#6 619292956#21 619292956#20 619292956#19 619292956#18 619292956#16 619292956#15"/>
    </person>
    <person id="ped29" type="ped_pedestrian" depart="35.59">
        <walk edges="153756859#2 153756859#1 153756859#0 39436507#5 39436507#4 39436507#3 39436507#2 39436507#1 856432645#8 478539641 542310815#0 542310815#1 542310816#1 542310816#2 542310816#3 542310814#0 294519923#17 886233771 856432647 856432648 856432638#0 103063340#1 103063344#0 103063344#1 103063344#2 230396606#0 381689882#3 381689882#4 381689879 381689880 381689881 381689878 258834782#0 258834782#1 258834782#2 251304143 275655298#0 67113649#0 67113649#1 -730222250 39433562#1 39433563"/>
    </person>
    <person id="ped30" type="ped_pedestrian" depart="36.82">
        <walk edges="926090816#2 670746211#1 670746211#0 886386619 670713243#2 670713243#1 670713243#0 924844759#2 670713244#1 887779305#1 924844761 924844762 541933040#12 541933040#11 243007651 670817238#3 670817238#2 670817238#1 670817238#0 887779307#0 887779307#1 230395550#0 393957069#1 673644675#1 144763035#4 275655298#0 275655298#1 275655298#2 275655298#3 275655298#4 45763025#2 572505821#4 572505821#3"/>
    </person>
    <person id="ped31" type="ped_pedestrian" depart="38.05">
        <walk edges="542310811#9 542310811#8 666211017#2 666211017#0 155235376#2 923371383 691680979 691680980#0 103063342 103063339 39436437#0 39436437#1 381689882#3 381689882#4 381689879 381689880 381689881 381689878 258834782#0 258834782#1 258834782#2 251304143 275655298#0 67113649#0 67113649#1 -39433556#8 -39433556#6 -39433560#3 -39433560#2 -730222249#2 -730222249#3 -730222249#4 39436451#3 572505826#1 26959791#1 572345506#0 184298557#8 214212123 687789971#0 744765795 583899270 583899268 571949720#3 571949720#2 575384555 575384556"/>
    </person>
    <person id="ped32" type="ped_pedestrian" depart="39.28">
        <walk edges="670955039#2 670955039#1 670955041 670955040#0 39433561#4 691671331#2 691671331#1 691671331#0 670938288#0 670938288#2 887779307#1 155235372#5 155235372#1 155235372#0 584077178#6 155235372#14 584077178#4 584077178#3 584077178#2 138533181 584077173 584077174 138533179#10 138533179#11 666211003#0 692356898#1 692356898#2 692356898#3 692356898#4 670609943#1 209559112#2 39436591#2 39436591#1 666209784#0"/>
    </person>
    <person id="ped33" type="ped_pedestrian" depart="40.50">
        <walk edges="196467159#10 39436509#1 39436509#0 369555017#0 369555017#1 39436516#4 155235354#0 155235354#1 155235354#2 856432645#0 952548695#1 952548695#0 952392261 18570435#1 18570435#0 886233768 415221610#2 415221610#1 415221610#0 619292956#29 230562269#1 230562269#2 230562269#3 230562269#4 230562269#5 230562269#6 619292956#21 619292956#20 619292956#19 619292956#18 619292956#16 230562269#15 230562269#16 230562269#17 230562269#18 230562269#19 230562269#20 684145378#0 684145378#1 -306095928#1"/>
    </person>
    <person id="ped34" type="ped_pedestrian" depart="41.73">
        <walk edges="285015032#1 285015032#0 -381689884#3 -381689884#6 -95939305 -95939308#0 -95939308#1 -95939308#2 -95939308#3 -251308509#2 -251308509#3 251308528#0 965405387 184298559#3 887525826#2 887525826#0 214161563#13 691671330 572505830#0 572505830#1 691671331#5 691671331#4 691671331#3 691671331#2 691671331#1 691671331#0 670938288#0 393957069#3 230395550#2 230395550#3"/>
    </person>
    <person id="ped35" type="ped_pedestrian" depart="42.96">
        <walk edges="184295759#2 572619532 670817242#9 670817242#8 670817242#7 144763030#1 144776663#3 572498050#0 666208838#2 666208838#1 850039870#1 687171772#3 687171772#2 687171772#1 850052789#0 670818664#2 670818664#1 670818664#0 850052786#2 687171767 670967780 687789977 670997242#6 670992443#1 670992443#0 670992442#0 670992442#1 666211021#1 688667604 691579105#0 691579105#1 666211022 690580503"/>
    </person>
    <person id="ped36" type="ped_pedestrian" depart="44.19">
        <walk edges="673570992#12 673570992#11 673570992#10 673570992#9 673625133#0 144776662#1 261815516 251455095 170232052 243502036#1 243502036#2 887586457 261815525 59285321#0 59285321#1 59285321#5 59285321#6 59285321#7 59285321#8 59285321#9 95793050#0 619292956#18 619292956#16 230562269#15 230562269#16 230562269#17 230562269#18 230562269#19 230562269#20 684145378#0 684145378#1 619292956#8 619292956#7 -282647403#3 282647403#4"/>
    </person>
    <person id="ped37" type="ped_pedestrian" depart="45.41">
        <walk edges="572532062 261815519#1 251308523#2 95793050#5 95793050#4 95793050#3 95793050#2 95793050#1 59285321#9 59285321#8 39433614#3 39433614#2 39433614#1 39433624#1"/>
    </person>
    <person id="ped38" type="ped_pedestrian" depart="46.64">
        <walk edges="684375340 666211025#0 680473457 666211021#2 688667604 691579105#0 691579105#1 691579105#2 691579105#3 690580498 690580496 690580495 666211006#5 155224464#0 306838996#0 306838996#1 306838996#2 306838996#3 306838996#4 -39436592#3 666211005#1 666211002#3 666211001#1 -285908106 138533178#0 138533178#1 285908110#1 924378580 199152191#5 666208499#6 666208499#5 666208499#4 666208499#3 666208499#2 137189946#5 -39501462#2 -39683373#0 -39683373#1 -39683373#2 39683535#0"/>
    </person>
    <person id="ped39" type="ped_pedestrian" depart="47.87">
        <walk edges="217100677#11 199152194#0 199152194#1 199152194#2 199152194#4 149672907#0 926090816#2 670746211#1 670746211#0 886386619 670713243#2 670713243#1 670713243#0 924844759#2 670713244#1 887779305#1 924844761 924844762 541933040#12 541933040#11 243007651 670957148#0 670938436#1 670938436#0 209678413#1 209678413#2 209678413#3 209678413#4 209678413#5 209678413#6 670938291#1 887525828 209678411#0 209678411#1 209678411#2 209678411#3 209678411#4 209678411#5 209678411#6 209678411#7 691966493 691678133#1 691671322#0 691678131#2 691678131#1 691678130 209775277#2 209775277#3 209775277#4"/>
    </person>
    <person id="ped40" type="ped_pedestrian" depart="49.10">
        <walk edges="542310820#1 542310821#1 542310822#1 294519923#9 138533182#1 39436615 265376980 692356899#0 692356899#1 72457420#0 294519922#3 39436606#1 -39436606#2 -39436606#3 -39436606#4 216896031#1"/>
    </person>
    <person id="ped41" type="ped_pedestrian" depart="50.32">
        <walk edges="571949732#2 583703377 583703378 95939304 95939309 571949722 571949733#11 571949733#10 571949733#9 571949733#8 571949733#7 571949733#6 571949733#5 571949733#4 571949733#3 571949733#2 571949733#1 573007161#1 573007161#0 573007155 573007154#1 573007152 573007153 572510159#11 572347219#0 45763025#6 45763025#4 45763025#3 45763025#2 275655298#4 275655298#3 275655298#2 275655298#1 275655298#0 144763035#4 673644675#1 673644675#2 674433345#9"/>
    </person>
    <person id="ped42" type="ped_pedestrian" depart="51.55">
        <walk edges="39436499 -39436499 -39436500#1 -39436554#1 196467159#11 39436516#0 39436516#1 39436516#2 39436516#3 39436516#4 155235354#0 155235354#1 155235354#2 856432645#0 952548695#1 952548695#0 952392261 18570435#1 18570435#0 886233768 251455097 887586454 -887586458 -144763014 -261815503#1 886645247#0 886645247#1 251311714#1 251311714#2 251311714#3 251311714#6 -251311714#7 -251311714#8 572505822#0 572505818#4 572505826#2 572505826#1 26959791#1 170232025#3 572345501#0 184298557#5"/>
    </person>
    <person id="ped43" type="ped_pedestrian" depart="52.78">
        <walk edges="965405385 572510161#11 572510161#12 572345483#2 -251308509#3 -251308509#2 36990137#1 36990137#2 572330903#6 572330903#7 572330903#8 575384558#0 575384558#1 54048199#2 54048199#3"/>
    </person>
    <person id="ped44" type="ped_pedestrian" depart="54.00">
        <walk edges="-39683407#7 -39683429 -39683422#5 -39683431#0 -39683431#1 39683334#8 -39683361#0 -39683361#1 -39683361#2 -39683506#2 375809347#2 375809347#4 -251308511 -381689887#5 -381689887#4 -381689887#2 -39393299#1 39393294 -39393275#1 216480480#7 39393277#2 -39393277#1"/>
    </person>
    <person id="ped45" type="ped_pedestrian" depart="55.23">
        <walk edges="-478447612#1 155009842 144775070#6 144775070#5 144775070#4 184723802#0 184723802#1 184723802#2 184723802#3 -153756868 155009832#1 155009832#0 155009716#0 155009716#1 155009716#2 478447618#0 478539640#1 856432645#9 856432645#8 856432645#6 856432645#3 856432645#2 856432645#0 952548695#1 952548695#0 952392261 18570435#1 18570435#0 886233768 251455097 887586454 -887586458 -144763014 -261815503#1 572498048#0 572498049#0 -886645247#0 -886645247#2 572498065#1 184295759#5 572347222#1"/>
    </person>
    <person id="ped46" type="ped_pedestrian" depart="56.46">
        <walk edges="666211117#6 666211117#5 666211023#2 666211023#1 666211023#0 684375339#1 684375339#0 684375338 680473457 666211021#2 688667604 691579105#0 690580488 690580489 155224463#6 666211008#0 139633245#0 245926142#10 245926142#7 245926142#6 670609940#0 389335197#3 -245926142#2 -245926142#1 -245926142#0 294519922#4 -39436606#1 39436606#2 149586585#3 39436607#0 39436607#1 39436607#2"/>
    </person>
    <person id="ped47" type="ped_pedestrian" depart="57.69">
        <walk edges="-39433600#1 39433591#7 39433591#6 -39433596#1 39433605#3 39433594#3 39433594#5 39433590#5 -39433590#6 -39433595#2 -39433595#3 -98727610#0 -98727610#1 39433582#2 -39433624#0 39433624#1 39433579#1"/>
    </person>
    <person id="ped48" type="ped_pedestrian" depart="58.91">
        <walk edges="95939307#1 571949720#0 571949720#1 571949720#2 571949720#3 583899268 583899270 744765795 687789971#0 214212123 184298557#8 572345506#0 26959791#1 26959791#0 251311714#10 730222249#4 730222249#3 730222249#2 730222249#1 39433561#1 -39433563 39433564#0 691671331#1 670938289#0 670938289#1 670938289#2 209678413#1 670938436#0 670938436#1 670957148#0 243007651 541933040#10 157165825#12 541933040#8 541933040#7 541852649#8 542037738#0 541852649#6 541852649#5 542037738#13 541852649#3 541852656#25 541852649#1 541852649#0 541852650#8 541852648#0 541852656#20"/>
    </person>
    <person id="ped49" type="ped_pedestrian" depart="60.14">
        <walk edges="850098866 230396606#0 103063344#2 103063344#1 103063344#0 103063340#1 856432638#0 155235390 856432637#1 666208507#1 666208507#2 542310811#4 886233776 670992444#0 670992444#1 684372055 670992445#5"/>
    </person>
    <person id="ped50" type="ped_pedestrian" depart="61.37">
        <walk edges="-155009832#2 -155009832#1 -155009832#0 155009716#0 155009716#1 155009716#2 478447618#0 478539640#1 39436591#1 39436591#2 209559112#2 670609943#1 -245926142#10 692356901#2 666211017#0 155235376#2 923371383 691680979 691680980#0 103063342 103063339 39436437#0 39436437#1 381689882#3 381689882#4 381689879 381689880 381689881 381689878 258834782#0 258834782#1 258834782#2 251304143 275655298#0 67113649#0 67113649#1 -39433556#8 -39433556#6 -39433560#3 -39433560#2 -730222249#2 -730222249#3 -730222249#4 39436451#3 572505826#1 26959791#1 216480476#2 60719572#4 214214085#10 54048227 54048212#1 585532851"/>
    </person>
    <person id="ped51" type="ped_pedestrian" depart="62.60">
        <walk edges="574076574#0 574076575 574076573 184298557#4 184298557#5 572345501#0 170232025#2 170232025#1 572345496#1 572345496#2 214161563#11 39433558#8 39433558#5 39433558#4 39433558#3 39433564#0 691671331#1 670938289#0 670938289#1 670938289#2 209678413#1 670938436#0 670938436#1 670957148#0 243007651 541933040#10 157165825#11 541852673#1 541852673#0 541852672#3"/>
    </person>
    <person id="ped52" type="ped_pedestrian" depart="63.82">
        <walk edges="229076839#1 27817936 27817893#1 975039882 27817362#1 27817362#0 360184151#2 360184151#3 23630623 670733025#0 670746213#0 926090812#3 149672907#0 926090816#2 670746211#1 670746211#0 886386619 670713243#2 670713243#1 670713243#0 924844759#2 670713244#1 887779305#1 924844761 924844762 541933040#12 541933040#11 243007651 670817238#3 670817238#2 670817238#1 670817238#0 887779307#0 887779307#1 230395550#0 393957069#1 673644675#1 144763035#4 275655298#0 67113649#0 572505821#8"/>
    </person>
    <person id="ped54" type="ped_pedestrian" depart="66.28">
        <walk edges="39683439#0 39683375#2 39683375#3 39683375#4 39683407#3 39683407#5 -39683425#1 -39683342#6 -39683342#5 -39683342#3 -39683342#1 -39683412#1 -39683412#0 -170232040#4 170232040#2 136938168#4 136938168#3 136938168#2 136938168#1 -375809348#17 -375809348#18 670938288#2 887779307#1 155235372#5 155235372#1 155235372#0 584077178#6 155235372#14 584077178#4 584077178#3 584077178#2 138533181 584077173 584077174 138533179#10 138533179#11 666211003#0 692356898#1"/>
    </person>
    <person id="ped55" type="ped_pedestrian" depart="67.51">
        <walk edges="673570992#1 673579016 687752397 691671332#1 691671332#2 144763035#2 144763035#1 670938288#2 887779307#1 155235372#5 155235372#1 155235372#0 584077178#6 155235372#14 155235372#13 138533179#6 155235372#11 155235372#10 887779309#0 887779309#1 691440734 670713246#1 666208502#1 666208502#0 687829655#0 886386615#3 199152193#1 312409074#1 312409074#2 312409074#3 312409074#4 312409074#5 39436604#2 39436604#3 216896031#7"/>
    </person>
    <person id="ped56" type="ped_pedestrian" depart="68.73">
        <walk edges="54044203 572293468#8 572330869#0 236959052#1 236959054#0 39436451#1 39436451#2 39436451#3 -730222249#4 -730222249#3 -730222249#2 730222249#1 39433561#1 -39433563 39433564#0 691671331#1 691671331#0 670938288#0 670938288#2 887779307#1 155235372#5 155235372#1 155235372#0 584077178#6 155235372#14 584077178#4 584077178#3 584077178#2 584077178#1 584077178#8 155235365"/>
    </person>
    <person id="ped57" type="ped_pedestrian" depart="69.96">
        <walk edges="684372053 670992444#1 670992444#0 886233776 542310811#4 666208507#2 666208507#1 856432637#1 155235390 856432638#0 103063340#1 103063344#0 103063344#1 103063344#2 230396606#0 381689882#3 381689882#4 381689879 381689880 381689881 381689878 258834782#0 258834782#1 258834782#2 251304143 275655298#0 67113649#0 67113649#1"/>
    </person>
    <person id="ped58" type="ped_pedestrian" depart="71.19">
        <walk edges="261815519#4 583899313#2 583899313#1 583899310 573113720 573113726#4 573113727#0 583899283 583899295#0 572345513#12 572345513#11 572345513#10 572345513#9 572345513#8 572345513#7 572345513#6 572345513#5 572345513#4 572345513#3 572345513#2 583924042 670983083#0 724839191 572510159#8 216480479#3 572345518#3 572345518#4 572505818#10 572505818#9"/>
    </person>
    <person id="ped59" type="ped_pedestrian" depart="72.42">
        <walk edges="572330903#11 572558403#2 572558403#1 572558403#0 583899319#0 573104778 583899344#4 583899344#3 583899344#2 583899344#1 573113723#0 573113722#1 670983078 662693756#2 662693756#3 687791834 670983082#0 687791833 670982463#4 670982467 687280674 670983273 670817240#6 572498051#2 886645247#0 261815503#0 144763014 887586458 887586455 952392263 144763024#2 144763024#1 144763024#0 952392256 952392255 670997514#2 230396606#4 856432638#0 856432648 856432647 886233771 294519923#17 542310814#0 542310816#3 542310816#2 542310816#1 542310815#1 542310815#0 478539641 856432645#8 856432645#9 478539640#1 478447618#0 155009716#2 155009716#1 155009716#0 155009832#0 155009832#1 155009832#2 155009832#3 155009832#4 144775070#3"/>
    </person>
    <person id="ped60" type="ped_pedestrian" depart="73.64">
        <walk edges="666208507#0 856432637#1 155235390 856432638#0 103063340#1 103063344#0 103063344#1 103063344#2 230396606#0 381689882#3 381689882#4 381689879 381689880 381689881 381689878 258834782#0 258834782#1 258834782#2 393957069#0 393957069#1 230395550#0 887779307#1 887779307#0 670817238#0 670817238#1 670817238#2 670817238#3 243007651 541933040#10 157165825#12 541933040#8 541933040#7 541852649#8 542037738#0 541852649#6 541852649#5 542037738#13 541852649#3 541852656#25 541852649#1 541852649#0 541852650#8 541852648#0 541852648#1 541852657#0 541852656#18 541852657#2 541852656#16 541852657#4 541852656#14 541852657#6 541852656#12 541852656#11 541862320"/>
    </person>
    <person id="ped61" type="ped_pedestrian" depart="74.87">
        <walk edges="666211001#1 666211001#0 138533179#2 155235372#10 155235372#9 670957149#0 670957149#1 670957149#2 541933040#11 541933040#10 157165825#12 541933040#8 541933040#7 541852649#8 542037738#0 541852649#6 541852649#5 542037738#13 542037738#12 541852656#1 541852656#2 541852656#6 541852656#7"/>
    </person>
    <person id="ped62" type="ped_pedestrian" depart="76.10">