<additional>
<taz id="0"  color="blue"/>
<taz id="1"  color="green"/>

</additional>