<configuration>
<!-- The duarouter configuration file takes as input your network and the OD Trips File and output
the route file -->
<input>
<net-file value="osm.net.xml"/> <!-- Your SUMO Network File -->
<route-files value="testod_file_200.odtrips.xml"/> <!-- Your SUMO OD Trips File -->
</input>
<output>
<output-file value="test_od_route_file_200.odtrips.rou.xml"/>
</output>
<report>
<xml-validation value="never"/>
<no-step-log value="true"/>
</report>
</configuration>


