<additional>
<tazs>
<taz id="1" edges="182487179#0">
</taz>
<taz id="2" edges="251308516">
</taz>
<taz id="3" edges="24053389">
</taz>
<taz id="4" edges="26960357#0">
</taz>

</tazs>
</additional>


