<?xml version="1.0" encoding="UTF-8"?>
<!-- generated on 2022-02-16 09:16:50.638635 by $Id$ v1_9_2+0000-4206cfae24
  options: -n osm.net.xml -r testrandom_200.rou.xml -e 200 -l
-->
<routes xmlns:xsi="http://www.w3.org/2001/XMLSchema-instance" xsi:noNamespaceSchemaLocation="http://sumo.dlr.de/xsd/routes_file.xsd">
    <trip id="0" depart="0.00" from="39393295#0" to="-170232040#10"/>
    <trip id="1" depart="1.00" from="-39683537#2" to="-39683341#1"/>
    <trip id="2" depart="2.00" from="39436508#2" to="39433575#0"/>
    <trip id="3" depart="3.00" from="45766797#1" to="-39383377#1"/>
    <trip id="4" depart="4.00" from="196467144" to="-196467142"/>
    <trip id="5" depart="5.00" from="-39501463" to="251308516"/>
    <trip id="6" depart="6.00" from="-170232040#19" to="-39436611#0"/>
    <trip id="7" depart="7.00" from="39433514#1" to="258863042#6"/>
    <trip id="8" depart="8.00" from="-39683341#0" to="28916831#4"/>
    <trip id="9" depart="9.00" from="39683341#0" to="-136938168#2"/>
    <trip id="10" depart="10.00" from="39655538#0" to="39433592#1"/>
    <trip id="11" depart="11.00" from="143327353" to="-39433603"/>
    <trip id="12" depart="12.00" from="760595302" to="137189946#5"/>
    <trip id="13" depart="13.00" from="-39393256#1" to="-39393257#2"/>
    <trip id="14" depart="14.00" from="39683450" to="32636352#4"/>
    <trip id="15" depart="15.00" from="39683334#2" to="39433625#1"/>
    <trip id="16" depart="16.00" from="258863042#1" to="886386618#1"/>
    <trip id="17" depart="17.00" from="157862107#2" to="261815511#2"/>
    <trip id="18" depart="18.00" from="39683407#1" to="381689884#1"/>
    <trip id="19" depart="19.00" from="39683535#0" to="27085402#0"/>
    <trip id="20" depart="20.00" from="39433614#0" to="-216480484#4"/>
    <trip id="21" depart="21.00" from="-39683365#0" to="-45644146#7"/>
    <trip id="22" depart="22.00" from="-381689882#0" to="-39683373#0"/>
    <trip id="23" depart="23.00" from="-39393275#2" to="-39683537#3"/>
    <trip id="24" depart="24.00" from="39393276#1" to="149586584#0"/>
    <trip id="25" depart="25.00" from="153989325#0" to="-39445374#2"/>
    <trip id="26" depart="26.00" from="-39683511#1" to="619292956#8"/>
    <trip id="27" depart="27.00" from="393957069#1" to="375809347#0"/>
    <trip id="28" depart="28.00" from="-39433626#1" to="39433625#0"/>
    <trip id="29" depart="29.00" from="-39433617" to="155224464#3"/>
    <trip id="30" depart="30.00" from="95793047#1" to="39393274"/>
    <trip id="31" depart="31.00" from="26956963" to="39433582#1"/>
    <trip id="32" depart="32.00" from="39683429" to="39436592#2"/>
    <trip id="33" depart="33.00" from="-39683368#7" to="-196467150#1"/>
    <trip id="34" depart="34.00" from="-95939308#2" to="-39683506#0"/>
    <trip id="35" depart="35.00" from="-39445374#2" to="688686080#2"/>
    <trip id="36" depart="36.00" from="453997080" to="-95793050#2"/>
    <trip id="37" depart="37.00" from="39433556#5" to="158789784#0"/>
    <trip id="38" depart="38.00" from="619292956#0" to="216480476#2"/>
    <trip id="39" depart="39.00" from="-39683506#0" to="-39683408#3"/>
    <trip id="40" depart="40.00" from="26959785#0" to="-39683455#0"/>
    <trip id="41" depart="41.00" from="294519923#11" to="45644146#5"/>
    <trip id="42" depart="42.00" from="170232029#2" to="-39501461#0"/>
    <trip id="43" depart="43.00" from="96781394#1" to="251308516"/>
    <trip id="44" depart="44.00" from="-39393255#0" to="-220735552"/>
    <trip id="45" depart="45.00" from="-39393295#1" to="39393242#2"/>
    <trip id="46" depart="46.00" from="39445374#2" to="186583188"/>
    <trip id="47" depart="47.00" from="-27085402#7" to="155235356#3"/>
    <trip id="48" depart="48.00" from="965405374#2" to="251311713#1"/>
    <trip id="49" depart="49.00" from="886386618#1" to="39683439#1"/>
    <trip id="50" depart="50.00" from="-137189955" to="39433617"/>
    <trip id="51" depart="51.00" from="39433590#7" to="258863042#1"/>
    <trip id="52" depart="52.00" from="-39683511#1" to="39393275#0"/>
    <trip id="53" depart="53.00" from="-39393295#9" to="199152190#1"/>
    <trip id="54" depart="54.00" from="216480476#2" to="692488024"/>
    <trip id="55" depart="55.00" from="453997080" to="-39683455#1"/>
    <trip id="56" depart="56.00" from="245926142#1" to="-39436500#1"/>
    <trip id="57" depart="57.00" from="60719572#4" to="39683511#3"/>
    <trip id="58" depart="58.00" from="-689794343#2" to="39393273"/>
    <trip id="59" depart="59.00" from="381689884#1" to="-39433596#0"/>
    <trip id="60" depart="60.00" from="39436590#1" to="258863042#1"/>
    <trip id="61" depart="61.00" from="39436613#0" to="251311714#13"/>
    <trip id="62" depart="62.00" from="-107719979#0" to="107719979#2"/>
    <trip id="63" depart="63.00" from="-149672905#3" to="60719572#4"/>
    <trip id="64" depart="64.00" from="453997085" to="39683368#1"/>
    <trip id="65" depart="65.00" from="-91896629#1" to="-261815503#1"/>
    <trip id="66" depart="66.00" from="453997083" to="689794343#1"/>
    <trip id="67" depart="67.00" from="-39383377#1" to="236959052#1"/>
    <trip id="68" depart="68.00" from="-285908106" to="39436553#0"/>
    <trip id="69" depart="69.00" from="39436594#1" to="-39433560#1"/>
    <trip id="70" depart="70.00" from="231774696#3" to="258863046#1"/>
    <trip id="71" depart="71.00" from="-39683506#0" to="39683528#0"/>
    <trip id="72" depart="72.00" from="196467149" to="-39445374#2"/>
    <trip id="73" depart="73.00" from="258863042#1" to="39433625#1"/>
    <trip id="74" depart="74.00" from="-39436623#0" to="-95793042#1"/>
    <trip id="75" depart="75.00" from="95939308#2" to="39393295#1"/>
    <trip id="76" depart="76.00" from="199152192#2" to="251308522#3"/>
    <trip id="77" depart="77.00" from="-39433521#0" to="-39683342#0"/>
    <trip id="78" depart="78.00" from="139633245#1" to="28916831#1"/>
    <trip id="79" depart="79.00" from="-39683373#0" to="-39501462#0"/>
    <trip id="80" depart="80.00" from="-375809347#1" to="39393251#1"/>
    <trip id="81" depart="81.00" from="-39683368#6" to="45766796#5"/>
    <trip id="82" depart="82.00" from="39683528#3" to="-306095928#2"/>
    <trip id="83" depart="83.00" from="-39683407#0" to="39433558#8"/>
    <trip id="84" depart="84.00" from="-39501453#0" to="-39433566#0"/>
    <trip id="85" depart="85.00" from="651066494#6" to="26960357#0"/>
    <trip id="86" depart="86.00" from="218879500#2" to="39436603#6"/>
    <trip id="87" depart="87.00" from="39683334#3" to="-39436568"/>
    <trip id="88" depart="88.00" from="-39393272#2" to="196467150#3"/>
    <trip id="89" depart="89.00" from="196467149" to="216480480#4"/>
    <trip id="90" depart="90.00" from="39436504#2" to="39433566#0"/>
    <trip id="91" depart="91.00" from="924760432" to="-39393272#4"/>
    <trip id="92" depart="92.00" from="170232040#13" to="138533178#1"/>
    <trip id="93" depart="93.00" from="39683535#0" to="-39683410#1"/>
    <trip id="94" depart="94.00" from="-39436570#0" to="209758753#0"/>
    <trip id="95" depart="95.00" from="196467144" to="-39683537#5"/>
    <trip id="96" depart="96.00" from="-39683421#0" to="59285321#12"/>
    <trip id="97" depart="97.00" from="209758753#1" to="39683441"/>
    <trip id="98" depart="98.00" from="261815519#4" to="-245926142#6"/>
    <trip id="99" depart="99.00" from="98727610#0" to="39683373#4"/>
    <trip id="100" depart="100.00" from="886233771" to="59285321#18"/>
    <trip id="101" depart="101.00" from="39683455#1" to="-39433618#1"/>
    <trip id="102" depart="102.00" from="236959056#3" to="-39445387#1"/>
    <trip id="103" depart="103.00" from="170232034#0" to="-265376980"/>
    <trip id="104" depart="104.00" from="157862107#3" to="926090813#1"/>
    <trip id="105" depart="105.00" from="-39683506#0" to="39436603#1"/>
    <trip id="106" depart="106.00" from="216480476#2" to="186583188"/>
    <trip id="107" depart="107.00" from="760595302" to="95939308#2"/>
    <trip id="108" depart="108.00" from="264976793" to="39433614#1"/>
    <trip id="109" depart="109.00" from="-39433605#2" to="-571883566"/>
    <trip id="110" depart="110.00" from="886233770" to="27085402#0"/>
    <trip id="111" depart="111.00" from="258863042#1" to="39436508#4"/>
    <trip id="112" depart="112.00" from="-261815503#1" to="282647403#5"/>
    <trip id="113" depart="113.00" from="251308509#2" to="39683418#1"/>
    <trip id="114" depart="114.00" from="-39433607#1" to="787569324#1"/>
    <trip id="115" depart="115.00" from="-381689882#1" to="-39436553#0"/>
    <trip id="116" depart="116.00" from="36990038" to="39433568#1"/>
    <trip id="117" depart="117.00" from="-39683373#4" to="-39433514#4"/>
    <trip id="118" depart="118.00" from="45766796#5" to="-39683407#8"/>
    <trip id="119" depart="119.00" from="369555017#0" to="381689884#6"/>
    <trip id="120" depart="120.00" from="19020758#1" to="282647403#4"/>
    <trip id="121" depart="121.00" from="251311713#1" to="619292956#29"/>
    <trip id="122" depart="122.00" from="-39445374#2" to="39433613"/>
    <trip id="123" depart="123.00" from="-39683407#0" to="158789784#1"/>
    <trip id="124" depart="124.00" from="39433579#1" to="-689794343#1"/>
    <trip id="125" depart="125.00" from="-98727610#0" to="39436520"/>
    <trip id="126" depart="126.00" from="-375809347#1" to="216480476#2"/>
    <trip id="127" depart="127.00" from="96781394#2" to="965405374#2"/>
    <trip id="128" depart="128.00" from="-375809347#3" to="-39445374#2"/>
    <trip id="129" depart="129.00" from="-39683506#0" to="619292956#21"/>
    <trip id="130" depart="130.00" from="45644146#2" to="407608718"/>
    <trip id="131" depart="131.00" from="153989325#0" to="-39433606#1"/>
    <trip id="132" depart="132.00" from="39683409#0" to="39433594#1"/>
    <trip id="133" depart="133.00" from="381689885#6" to="952548695#1"/>
    <trip id="134" depart="134.00" from="39433521#1" to="-137189946#1"/>
    <trip id="135" depart="135.00" from="39683368#0" to="-684145380#0"/>
    <trip id="136" depart="136.00" from="39433566#0" to="651066494#6"/>
    <trip id="137" depart="137.00" from="-39433575#0" to="-39393298"/>
    <trip id="138" depart="138.00" from="-39393278" to="261815511#6"/>
    <trip id="139" depart="139.00" from="-39683528#3" to="36990137#1"/>
    <trip id="140" depart="140.00" from="39433624#5" to="-39445374#1"/>
    <trip id="141" depart="141.00" from="39393276#1" to="-39683455#1"/>
    <trip id="142" depart="142.00" from="24053389" to="45766796#5"/>
    <trip id="143" depart="143.00" from="39683433#2" to="-39393255#1"/>
    <trip id="144" depart="144.00" from="196467149" to="-39683535#0"/>
    <trip id="145" depart="145.00" from="-107771170#1" to="39436574#1"/>
    <trip id="146" depart="146.00" from="39393277#1" to="-39683455#0"/>
    <trip id="147" depart="147.00" from="39436522" to="261815511#2"/>
    <trip id="148" depart="148.00" from="196467159#10" to="-137189946#2"/>
    <trip id="149" depart="149.00" from="-375809348#13" to="45365730#0"/>
    <trip id="150" depart="150.00" from="571883566" to="258863042#6"/>
    <trip id="151" depart="151.00" from="39683410#0" to="27085402#9"/>
    <trip id="152" depart="152.00" from="-39433590#7" to="-39433558#5"/>
    <trip id="153" depart="153.00" from="-95793041#1" to="45644146#7"/>
    <trip id="154" depart="154.00" from="39445398#5" to="39683439#0"/>
    <trip id="155" depart="155.00" from="483189062#3" to="-39445374#2"/>
    <trip id="156" depart="156.00" from="-39683419" to="-39393276#0"/>
    <trip id="157" depart="157.00" from="39436616#1" to="45365731#2"/>
    <trip id="158" depart="158.00" from="170232044#1" to="381689885#1"/>
    <trip id="159" depart="159.00" from="-39433605#2" to="60719572#5"/>
    <trip id="160" depart="160.00" from="407608718" to="891481217"/>
    <trip id="161" depart="161.00" from="39683341#3" to="407608719"/>
    <trip id="162" depart="162.00" from="-170232040#10" to="39436499"/>
    <trip id="163" depart="163.00" from="137189946#2" to="619292956#11"/>
    <trip id="164" depart="164.00" from="39501454#1" to="39683495#0"/>
    <trip id="165" depart="165.00" from="39683341#3" to="-39683502#1"/>
    <trip id="166" depart="166.00" from="39445374#2" to="-39393278"/>
    <trip id="167" depart="167.00" from="45365732#2" to="39683431#1"/>
    <trip id="168" depart="168.00" from="-39683342#0" to="39501454#1"/>
    <trip id="169" depart="169.00" from="216480480#0" to="-730222250"/>
    <trip id="170" depart="170.00" from="39445398#3" to="-39683342#3"/>
    <trip id="171" depart="171.00" from="-158789784#1" to="-39436570#0"/>
    <trip id="172" depart="172.00" from="136938168#1" to="39683495#1"/>
    <trip id="173" depart="173.00" from="856432646" to="-39683538#1"/>
    <trip id="174" depart="174.00" from="39393295#4" to="159474691#3"/>
    <trip id="175" depart="175.00" from="89849995#1" to="258863042#1"/>
    <trip id="176" depart="176.00" from="688686079#0" to="-39393298"/>
    <trip id="177" depart="177.00" from="886386618#1" to="-39436500#1"/>
    <trip id="178" depart="178.00" from="787569324#1" to="-39683495#1"/>
    <trip id="179" depart="179.00" from="-39393294" to="199152190#1"/>
    <trip id="180" depart="180.00" from="39436504#1" to="-95793047#1"/>
    <trip id="181" depart="181.00" from="375809348#7" to="251308516"/>
    <trip id="182" depart="182.00" from="157862116#0" to="27085402#0"/>
    <trip id="183" depart="183.00" from="-39683431#0" to="39433601"/>
    <trip id="184" depart="184.00" from="-107719979#1" to="59285321#16"/>
    <trip id="185" depart="185.00" from="258863042#1" to="39433617"/>
    <trip id="186" depart="186.00" from="39436524#0" to="39433561#0"/>
    <trip id="187" depart="187.00" from="149672907#1" to="-285908106"/>
    <trip id="188" depart="188.00" from="39433568#0" to="136938165#1"/>
    <trip id="189" depart="189.00" from="-95939306#1" to="39683409#0"/>
    <trip id="190" depart="190.00" from="39433625#1" to="-689794343#1"/>
    <trip id="191" depart="191.00" from="-95793042#2" to="170232040#10"/>
    <trip id="192" depart="192.00" from="170232040#12" to="-53154970#7"/>
    <trip id="193" depart="193.00" from="-39433560#1" to="186583188"/>
    <trip id="194" depart="194.00" from="688686079#0" to="39433576#1"/>
    <trip id="195" depart="195.00" from="53154970#7" to="375809348#4"/>
    <trip id="196" depart="196.00" from="-730222249#0" to="258863042#6"/>
    <trip id="197" depart="197.00" from="-107719969" to="-45644146#6"/>
    <trip id="198" depart="198.00" from="199152190#4" to="27085402#0"/>
    <trip id="199" depart="199.00" from="39433556#1" to="216480480#0"/>
</routes>
