<?xml version="1.0" encoding="UTF-8"?>

<!-- generated on 2022-01-28 10:37:46 by Eclipse SUMO polyconvert Version 1.9.2
<configuration xmlns:xsi="http://www.w3.org/2001/XMLSchema-instance" xsi:noNamespaceSchemaLocation="http://sumo.dlr.de/xsd/polyconvertConfiguration.xsd">

    <input>
        <net-file value="osm.net.xml"/>
        <osm-files value="osm_bbox.osm.xml"/>
        <osm.keep-full-type value="true"/>
        <type-file value="C:\Users\OTSLCPS004\source\data\typemap\osmPolyconvert.typ.xml"/>
    </input>

    <output>
        <output-file value="osm.poly.xml"/>
    </output>

    <processing>
        <poi-layer-offset value="5"/>
    </processing>

    <report>
        <verbose value="true"/>
    </report>

</configuration>
-->

<additional xmlns:xsi="http://www.w3.org/2001/XMLSchema-instance" xsi:noNamespaceSchemaLocation="http://sumo.dlr.de/xsd/additional_file.xsd">
    <location netOffset="-380237.19,-3947115.79" convBoundary="-0.00,-0.00,6639.19,7629.27" origBoundary="139.676605,35.660916,139.749676,35.729812" projParameter="+proj=utm +zone=54 +ellps=WGS84 +datum=WGS84 +units=m +no_defs"/>

    <poly id="1010033370" type="landuse.railway" color="194,194,130" fill="1" layer="-3.00" shape="2187.907373,2741.709154 2184.335528,2728.954238 2179.044180,2714.158639 2174.166007,2703.229292 2165.824556,2687.752969 2153.790828,2668.209741 2143.665007,2654.687364 2137.998529,2648.483309 2145.780686,2640.159841 2156.741147,2652.461957 2164.264962,2661.548004 2178.582154,2679.241657 2185.396371,2689.424296 2193.211318,2702.733229 2198.932166,2713.052376 2203.695892,2724.227312 2187.907373,2741.709154"/>
    <poly id="1010213701" type="landuse.railway" color="194,194,130" fill="1" layer="-3.00" shape="1943.518270,2447.400623 1946.892877,2450.706196 1998.169808,2498.728102 1999.301591,2497.392948 2034.785720,2531.191380 2033.359863,2532.874331 2053.975099,2551.793426 2053.262023,2552.623808 2098.278614,2595.481839 2138.777994,2634.206439 2132.191939,2640.583769 2092.591374,2602.069171 2091.245730,2602.974489 2045.425806,2560.282448 2025.703432,2541.806386 2023.313474,2544.500550 2019.500152,2540.867949 2020.811156,2539.397299 1996.092182,2515.429535 1997.289366,2514.248827 1939.506841,2458.869272 1937.147605,2456.371177 1943.518270,2447.400623"/>
    <poly id="102792887" type="amenity.place_of_worship" color="237,199,199" fill="1" layer="-1.00" shape="2602.351420,3660.187499 2583.225962,3602.308576 2635.372120,3585.912161 2623.468779,3528.048881 2628.020054,3526.613247 2631.859436,3525.408876 2644.838189,3584.533768 2694.973794,3575.563737 2703.347580,3592.249300 2709.063677,3603.667086 2711.572911,3608.659484 2703.491137,3612.071906 2710.732266,3630.025993 2602.351420,3660.187499"/>
    <poly id="109501208" type="building.commercial" color="255,230,230" fill="1" layer="-1.00" shape="2338.353299,2800.968338 2339.886259,2801.225424 2341.010837,2801.399157 2343.133305,2801.748297 2345.174186,2802.087422 2346.362400,2802.282502 2365.019738,2805.319733 2373.943414,2751.175362 2350.922927,2747.408102 2348.383306,2746.997909 2347.285722,2746.812725 2338.353299,2800.968338"/>
    <poly id="116589911" type="building.yes" color="255,230,230" fill="1" layer="-1.00" shape="2119.099810,3514.478673 2126.143435,3490.766791 2093.251513,3487.707858 2089.978610,3520.744049 2119.099810,3514.478673"/>
    <poly id="116596172" type="building.yes" color="255,230,230" fill="1" layer="-1.00" shape="1780.810205,3216.504306 1798.293734,3217.747626 1799.237969,3200.251311 1781.766105,3199.207520 1780.810205,3216.504306"/>
    <poly id="116596172#1" type="tourism.hotel" color="207,245,201" fill="1" layer="-2.00" shape="1780.810205,3216.504306 1798.293734,3217.747626 1799.237969,3200.251311 1781.766105,3199.207520 1780.810205,3216.504306"/>
    <poly id="116596174" type="building.retail" color="255,230,230" fill="1" layer="-1.00" shape="2047.616987,3156.087643 2091.401088,3161.453911 2092.153480,3149.928630 2096.794658,3150.488414 2098.748932,3125.157684 2066.159594,3108.149945 2062.568956,3106.278290 2051.067107,3113.197853 2047.616987,3156.087643"/>
    <poly id="116596174#1" type="shop.mall" color="237,199,255" fill="1" layer="-1.00" shape="2047.616987,3156.087643 2091.401088,3161.453911 2092.153480,3149.928630 2096.794658,3150.488414 2098.748932,3125.157684 2066.159594,3108.149945 2062.568956,3106.278290 2051.067107,3113.197853 2047.616987,3156.087643"/>
    <poly id="116596175" type="building.hotel" color="255,230,230" fill="1" layer="-1.00" shape="1577.737730,3287.762828 1651.409128,3301.582227 1654.457565,3302.151859 1665.315770,3244.808011 1668.148919,3229.860319 1678.076963,3174.015428 1656.917990,3169.981191 1596.625903,3158.502043 1589.526211,3199.011103 1597.199996,3200.306855 1596.625941,3204.097469 1593.042118,3203.424038 1577.737730,3287.762828"/>
    <poly id="116596175#1" type="tourism.hotel" color="207,245,201" fill="1" layer="-2.00" shape="1577.737730,3287.762828 1651.409128,3301.582227 1654.457565,3302.151859 1665.315770,3244.808011 1668.148919,3229.860319 1678.076963,3174.015428 1656.917990,3169.981191 1596.625903,3158.502043 1589.526211,3199.011103 1597.199996,3200.306855 1596.625941,3204.097469 1593.042118,3203.424038 1577.737730,3287.762828"/>
    <poly id="116596176" type="building.yes" color="255,230,230" fill="1" layer="-1.00" shape="1874.447436,3507.970417 1883.439979,3508.416873 1888.502289,3508.671422 1889.015818,3503.040067 1895.915393,3503.303525 1895.654919,3508.909334 1913.966329,3509.842344 1914.347164,3503.757908 1919.952672,3504.027457 1920.408841,3498.163896 1926.556667,3498.381881 1926.929640,3492.386300 1932.725317,3492.664428 1933.155381,3486.878872 1938.861313,3487.213664 1939.165733,3481.507431 1945.618126,3481.488420 1946.908662,3457.331272 1940.442496,3456.995463 1940.112327,3462.125161 1928.825563,3462.019701 1928.974828,3458.944748 1876.647474,3455.523163 1876.355743,3460.818762 1874.447436,3507.970417"/>
    <poly id="116596177" type="amenity.post_office" color="237,199,199" fill="1" layer="-1.00" shape="1853.415794,3294.572449 1854.463405,3276.675393 1878.727447,3278.072947 1880.348749,3250.206085 1822.835710,3246.886857 1820.167043,3292.650795 1853.415794,3294.572449"/>
    <poly id="116596177#1" type="building.yes" color="255,230,230" fill="1" layer="-1.00" shape="1853.415794,3294.572449 1854.463405,3276.675393 1878.727447,3278.072947 1880.348749,3250.206085 1822.835710,3246.886857 1820.167043,3292.650795 1853.415794,3294.572449"/>
    <poly id="116596178" type="building.train_station" color="255,230,230" fill="1" layer="-1.00" shape="2128.198337,3202.368525 2128.748906,3199.521235 2130.932943,3188.121223 2132.549784,3179.679659 2134.276920,3170.681948 2135.259022,3165.565820 2135.834833,3162.573978 2138.298263,3149.716989 2140.000028,3140.852741 2145.634421,3141.920808 2164.706992,3145.606630 2201.385844,3152.287796 2204.648670,3152.643999 2209.064696,3153.972289 2210.216966,3154.190013 2211.314797,3154.397363 2231.910723,3158.307235 2222.403459,3207.911116 2220.117625,3219.833855 2215.145458,3218.879012 2210.309607,3217.966743 2205.473609,3217.043386 2200.764731,3216.151630 2187.899084,3213.703752 2185.458534,3213.247924 2182.809130,3212.739392 2181.947158,3212.573299 2171.277297,3210.551230 2169.780156,3210.260420 2168.446478,3210.011822 2167.647993,3209.855984 2156.633394,3207.771932 2154.746131,3207.408633 2151.779286,3206.848843 2150.899215,3206.682993 2139.956997,3204.598004 2138.287488,3204.276200 2136.182615,3203.882504 2135.493006,3203.747415 2128.198337,3202.368525"/>
    <poly id="116596183" type="amenity.bus_station" color="237,199,199" fill="1" layer="-1.00" shape="2057.241280,3407.078418 2053.319323,3406.830849 2048.845115,3406.568412 2046.254606,3406.403048 2040.367365,3406.048401 2026.654744,3405.231677 1994.383116,3403.252065 1983.614033,3402.607169 1983.519195,3404.327959 1983.415603,3406.071054 1982.995568,3413.298662 1982.898230,3414.830891 1982.810089,3416.374093 1982.763885,3416.984862 1985.272957,3417.151287 1984.891694,3423.890255 1984.870577,3424.345379 1984.792219,3425.943920 1984.714008,3427.553553 1984.695244,3428.186146 1984.466561,3434.146528 1984.445444,3434.601653 1984.350166,3436.289168 1984.255475,3438.021050 1984.232888,3438.365256 1983.891949,3444.049783 1987.047979,3448.645136 1987.914943,3447.823798 1988.693628,3447.170037 1989.987486,3446.465071 1991.230877,3446.049212 1992.413428,3445.822754 1993.769958,3445.749303 2001.061448,3446.218430 2043.776931,3448.902792 2057.360746,3449.565934 2059.697152,3449.679198 2060.349961,3449.770392 2060.812754,3449.864105 2061.194257,3449.969988 2061.640129,3450.152675 2062.095783,3450.390701 2062.608373,3450.827660 2062.911233,3451.145367 2063.187976,3451.541076 2063.374235,3451.937983 2065.077847,3442.541186 2065.181895,3440.831369 2065.276895,3439.121672 2065.133821,3438.568879 2063.661597,3432.642129 2063.499104,3431.989750 2062.677293,3428.705791 2062.505751,3428.053532 2060.938484,3421.784134 2060.775843,3421.120663 2058.392513,3410.635356 2057.024724,3410.542540 2057.137526,3408.810419 2057.241280,3407.078418"/>
    <poly id="116709670" type="building.retail" color="255,230,230" fill="1" layer="-1.00" shape="2212.516795,3425.823323 2234.325762,3427.753533 2249.420870,3429.095883 2250.027996,3429.154415 2250.701603,3421.923473 2252.351144,3404.318061 2255.290208,3373.360908 2256.934050,3355.322918 2259.978123,3322.722506 2261.429222,3307.216443 2234.852350,3304.739070 2212.516795,3425.823323"/>
    <poly id="116709670#1" type="shop.mall" color="237,199,255" fill="1" layer="-1.00" shape="2212.516795,3425.823323 2234.325762,3427.753533 2249.420870,3429.095883 2250.027996,3429.154415 2250.701603,3421.923473 2252.351144,3404.318061 2255.290208,3373.360908 2256.934050,3355.322918 2259.978123,3322.722506 2261.429222,3307.216443 2234.852350,3304.739070 2212.516795,3425.823323"/>
    <poly id="136175512" type="building.yes" color="255,230,230" fill="1" layer="-1.00" shape="1781.689066,3198.176822 1798.923310,3199.046268 1799.740540,3184.935239 1800.439355,3172.811566 1797.730073,3169.841126 1782.547560,3169.454750 1781.689066,3198.176822"/>
    <poly id="136175513" type="building.yes" color="255,230,230" fill="1" layer="-1.00" shape="1920.289160,3236.008723 1921.094214,3223.695062 1914.409385,3223.262322 1913.861089,3231.734136 1917.010165,3235.797058 1920.289160,3236.008723"/>
    <poly id="136175514" type="building.yes" color="255,230,230" fill="1" layer="-1.00" shape="1903.818134,3271.516466 1915.635405,3272.025336 1916.638498,3245.986062 1908.352444,3244.920034 1905.030931,3248.325505 1903.818134,3271.516466"/>
    <poly id="136175515" type="amenity.restaurant" color="237,199,199" fill="1" layer="-1.00" shape="1879.939885,3277.369047 1892.422481,3277.547339 1894.409816,3249.298437 1890.798368,3243.810561 1881.338191,3242.926541 1879.939885,3277.369047"/>
    <poly id="136175515#1" type="building.yes" color="255,230,230" fill="1" layer="-1.00" shape="1879.939885,3277.369047 1892.422481,3277.547339 1894.409816,3249.298437 1890.798368,3243.810561 1881.338191,3242.926541 1879.939885,3277.369047"/>
    <poly id="136175516" type="building.yes" color="255,230,230" fill="1" layer="-1.00" shape="1780.924469,3217.612165 1798.586761,3218.686706 1798.220202,3226.523774 1794.434802,3229.070132 1783.096451,3228.510686 1780.315232,3225.574488 1780.924469,3217.612165"/>
    <poly id="136938170" type="building.yes" color="255,230,230" fill="1" layer="-1.00" shape="1970.710561,3064.851211 1942.491238,3052.556292 1938.118949,3054.533491 1929.035173,3075.221784 1943.044694,3081.326163 1941.964196,3083.792212 1946.834281,3085.913104 1946.342256,3087.029004 1954.899015,3090.753986 1960.319623,3078.423512 1964.033596,3080.038336 1970.710561,3064.851211"/>
    <poly id="136938172" type="building.yes" color="255,230,230" fill="1" layer="-1.00" shape="1976.763133,3080.390983 1980.494611,3081.961206 1985.409181,3070.369646 1981.686747,3068.799301 1976.763133,3080.390983"/>
    <poly id="136938174" type="building.yes" color="255,230,230" fill="1" layer="-1.00" shape="1972.080048,3088.961978 1980.757806,3069.044584 1976.424983,3067.171707 1967.747232,3087.089106 1972.080048,3088.961978"/>
    <poly id="136938175" type="building.retail" color="255,230,230" fill="1" layer="-1.00" shape="1938.133447,3160.046047 1938.785222,3148.455518 1931.585001,3148.062878 1930.933235,3159.653408 1938.133447,3160.046047"/>
    <poly id="136938175#1" type="shop.electronics" color="237,199,255" fill="1" layer="-1.00" shape="1938.133447,3160.046047 1938.785222,3148.455518 1931.585001,3148.062878 1930.933235,3159.653408 1938.133447,3160.046047"/>
    <poly id="136938176" type="building.yes" color="255,230,230" fill="1" layer="-1.00" shape="2098.137923,3027.762639 2127.114305,3035.044742 2142.468492,2974.546954 2113.482882,2967.264917 2098.137923,3027.762639"/>
    <poly id="136938177" type="building.yes" color="255,230,230" fill="1" layer="-1.00" shape="1970.466447,3066.917886 1964.678562,3080.218378 1969.129751,3082.145149 1974.917642,3068.844659 1970.466447,3066.917886"/>
    <poly id="136938178" type="building.yes" color="255,230,230" fill="1" layer="-1.00" shape="1923.628704,3159.583878 1930.448576,3159.959368 1931.136464,3147.680545 1924.316583,3147.305055 1923.628704,3159.583878"/>
    <poly id="136938179" type="building.yes" color="255,230,230" fill="1" layer="-1.00" shape="1929.311194,3147.216627 1929.918228,3136.347784 1924.637951,3136.051719 1924.021875,3146.920682 1929.311194,3147.216627"/>
    <poly id="136938181" type="building.yes" color="255,230,230" fill="1" layer="-1.00" shape="1949.893992,3161.043846 1950.691606,3146.799976 1939.877553,3146.200093 1939.079957,3160.443964 1949.893992,3161.043846"/>
    <poly id="136938182" type="building.yes" color="255,230,230" fill="1" layer="-1.00" shape="1927.259123,3236.104873 1932.194904,3236.361131 1932.816278,3224.526940 1927.889539,3224.270561 1927.259123,3236.104873"/>
    <poly id="136938183" type="building.yes" color="255,230,230" fill="1" layer="-1.00" shape="1917.794469,3223.283985 1932.692467,3224.062644 1934.246795,3194.543718 1919.348747,3193.765055 1917.794469,3223.283985"/>
    <poly id="136938184" type="building.yes" color="255,230,230" fill="1" layer="-1.00" shape="1921.317470,3235.751021 1926.298642,3236.017768 1926.919861,3224.172484 1921.938829,3223.916829 1921.317470,3235.751021"/>
    <poly id="136938185" type="building.yes" color="255,230,230" fill="1" layer="-1.00" shape="1962.232980,3152.426796 1951.446082,3151.826539 1950.889716,3161.740644 1959.394265,3162.215848 1961.787186,3160.442401 1962.232980,3152.426796"/>
    <poly id="136938186" type="building.yes" color="255,230,230" fill="1" layer="-1.00" shape="1922.965205,3159.370803 1924.267688,3136.112099 1918.244823,3135.781511 1917.087876,3156.364690 1920.465549,3159.237550 1922.965205,3159.370803"/>
    <poly id="136938187" type="building.yes" color="255,230,230" fill="1" layer="-1.00" shape="1929.746564,3147.288509 1938.785445,3147.789889 1938.924423,3145.303044 1945.056011,3145.643297 1945.568228,3136.495247 1930.397741,3135.653612 1929.746564,3147.288509"/>
    <poly id="136938188" type="building.yes" color="255,230,230" fill="1" layer="-1.00" shape="1961.167297,3151.231706 1962.015183,3135.999826 1946.074818,3135.112903 1945.460039,3146.081690 1950.993968,3146.396591 1950.760886,3150.659686 1961.167297,3151.231706"/>
    <poly id="136938189" type="building.yes" color="255,230,230" fill="1" layer="-1.00" shape="1977.161177,3162.302016 1979.374869,3120.382638 1975.655328,3118.346320 1971.622360,3119.975099 1969.552180,3159.063669 1972.678235,3162.073009 1977.161177,3162.302016"/>
    <poly id="136938190" type="building.yes" color="255,230,230" fill="1" layer="-1.00" shape="2194.632119,2909.989907 2198.046081,2912.185673 2210.682170,2888.355541 2204.316957,2886.786784 2203.737969,2888.857880 2200.304827,2887.949240 2198.263872,2896.496238 2190.135673,2894.385036 2187.040210,2904.632239 2188.602652,2905.066408 2195.348793,2906.696677 2194.632119,2909.989907"/>
    <poly id="136938191" type="building.yes" color="255,230,230" fill="1" layer="-1.00" shape="1991.841525,3074.278136 1985.842923,3071.684053 1979.923109,3085.274721 1975.608538,3083.412697 1972.982496,3089.449233 1983.286608,3093.905453 1991.841525,3074.278136"/>
    <poly id="136938194" type="building.yes" color="255,230,230" fill="1" layer="-1.00" shape="2009.897636,3124.171507 2013.879191,3122.077489 2014.366998,3111.764925 1998.802296,3105.081986 1996.176540,3111.140699 2003.922474,3114.466005 2001.314374,3120.491200 2009.897636,3124.171507"/>
    <poly id="136938195" type="building.yes" color="255,230,230" fill="1" layer="-1.00" shape="2131.848678,3046.741437 2137.069674,3048.025755 2137.671376,3045.621540 2141.438832,3046.492447 2142.463211,3034.996857 2143.321501,3025.311746 2137.510408,3023.891017 2131.848678,3046.741437"/>
    <poly id="136938196" type="building.yes" color="255,230,230" fill="1" layer="-1.00" shape="2009.557164,3161.306823 2010.945248,3134.929661 2009.069837,3132.047951 1979.876907,3118.656450 1977.568958,3162.340985 2006.803527,3163.861601 2009.557164,3161.306823"/>
    <poly id="136938197" type="building.yes" color="255,230,230" fill="1" layer="-1.00" shape="2159.426833,3013.350287 2164.118395,2994.462103 2165.953024,2994.948134 2167.884264,2987.689452 2166.004243,2987.192928 2166.918066,2983.752866 2160.587786,2982.083836 2152.818994,3011.906812 2159.426833,3013.350287"/>
    <poly id="136938200" type="building.retail" color="255,230,230" fill="1" layer="-1.00" shape="2246.229502,3224.769062 2249.287114,3225.349869 2253.988679,3200.371131 2255.913636,3190.583176 2256.981010,3185.066561 2257.464367,3182.608451 2260.591663,3166.558817 2261.071208,3163.812320 2231.910723,3158.307235 2222.403459,3207.911116 2220.117625,3219.833855 2236.294522,3222.881414 2246.229502,3224.769062"/>
    <poly id="136938200#1" type="shop.mall" color="237,199,255" fill="1" layer="-1.00" shape="2246.229502,3224.769062 2249.287114,3225.349869 2253.988679,3200.371131 2255.913636,3190.583176 2256.981010,3185.066561 2257.464367,3182.608451 2260.591663,3166.558817 2261.071208,3163.812320 2231.910723,3158.307235 2222.403459,3207.911116 2220.117625,3219.833855 2236.294522,3222.881414 2246.229502,3224.769062"/>
    <poly id="136938201" type="building.yes" color="255,230,230" fill="1" layer="-1.00" shape="2173.248055,2975.825814 2177.369889,2959.019710 2175.581232,2958.588537 2176.645907,2954.236793 2169.863309,2952.584835 2163.713892,2978.259493 2170.260320,2979.848009 2171.350521,2975.373895 2173.248055,2975.825814"/>
    <poly id="137189956" type="amenity.bus_station" color="237,199,199" fill="1" layer="-1.00" shape="2172.099750,3022.412558 2169.509355,3036.624649 2166.442917,3036.066171 2159.579338,3073.420913 2157.199493,3086.443192 2156.532499,3090.068583 2156.405870,3090.758071 2156.009500,3092.948786 2159.484142,3093.579514 2160.681665,3093.796632 2172.711041,3095.956014 2181.900802,3097.598302 2198.085516,3100.534759 2213.072698,3103.254120 2215.921352,3103.771120 2227.596035,3105.802142 2263.686529,3112.469166 2264.734356,3106.841874 2274.883853,3052.392695 2277.098158,3040.526393 2277.749013,3037.045446 2278.341221,3033.920274 2272.316799,3032.790716 2266.582819,3031.723883 2242.258446,3027.175422 2242.486628,3025.952092 2241.370684,3025.744977 2241.142503,3026.968307 2238.275729,3026.451538 2213.553908,3021.963880 2194.356910,3018.468185 2191.462837,3017.940698 2188.523078,3017.380536 2180.367744,3015.946424 2176.421504,3015.244272 2173.509478,3014.728122 2172.709139,3019.220588 2172.099750,3022.412558"/>
    <poly id="137189957" type="building.yes" color="255,230,230" fill="1" layer="-1.00" shape="1952.649787,2783.220517 1961.585395,2798.433620 1959.088421,2799.875630 1955.828143,2794.261039 1944.069640,2800.962252 1952.871077,2823.121815 2012.323729,2788.886125 2003.672986,2773.990918 2001.023340,2775.523688 1999.384015,2772.705413 1993.348136,2776.191188 1991.810701,2773.549064 1984.481161,2777.761991 1987.732376,2783.376712 1983.259292,2785.954282 1972.925681,2768.374533 1970.966800,2724.380492 1948.762748,2709.853595 1900.836151,2729.437273 1907.977288,2747.869129 1942.772310,2734.516775 1951.197331,2739.885387 1952.649787,2783.220517"/>
    <poly id="137189958" type="building.yes" color="255,230,230" fill="1" layer="-1.00" shape="2047.829781,2877.032567 2062.967799,2885.640473 2078.413063,2857.313246 2065.885371,2850.356986 2067.525299,2847.073702 2064.883300,2845.766353 2065.451801,2844.272261 2059.172048,2840.960755 2056.408337,2844.813614 2048.789408,2840.843135 2038.208662,2835.336590 2030.380119,2831.257967 2032.711548,2826.201608 2026.796085,2823.062797 2025.991431,2824.493459 2023.103183,2823.045166 2021.615189,2826.182226 2008.101434,2818.584579 1992.965960,2847.739859 2008.268225,2855.757531 2005.738033,2860.838718 2013.667573,2865.026919 2022.526866,2869.713119 2023.393388,2868.170700 2028.899119,2871.126342 2028.076372,2872.557244 2037.285096,2877.660391 2045.018613,2882.084184 2047.829781,2877.032567"/>
    <poly id="137189961" type="building.yes" color="255,230,230" fill="1" layer="-1.00" shape="1755.208972,3320.903882 1753.691796,3327.280766 1777.515756,3330.303575 1776.995149,3321.768285 1755.208972,3320.903882"/>
    <poly id="137189964" type="building.yes" color="255,230,230" fill="1" layer="-1.00" shape="1907.324504,3189.941886 1908.485834,3172.420524 1905.366455,3169.233618 1891.879445,3167.715187 1889.678067,3188.700511 1907.324504,3189.941886"/>
    <poly id="137189965" type="building.yes" color="255,230,230" fill="1" layer="-1.00" shape="1887.292292,3279.689936 1855.755304,3277.867469 1854.663115,3296.497304 1818.543169,3294.402980 1817.570364,3311.112017 1885.227106,3315.028792 1887.292292,3279.689936"/>
    <poly id="137189966" type="building.yes" color="255,230,230" fill="1" layer="-1.00" shape="2200.387027,2859.958639 2211.050351,2862.823969 2212.497366,2857.269049 2213.220802,2854.486043 2213.668901,2852.782773 2217.247133,2853.711687 2221.752505,2836.467883 2207.340009,2832.753545 2201.945511,2853.936305 2200.387027,2859.958639"/>
    <poly id="137189967" type="building.yes" color="255,230,230" fill="1" layer="-1.00" shape="1889.527880,3335.639417 1890.693108,3315.688460 1816.325342,3311.405889 1815.359532,3327.959521 1822.986815,3335.989999 1885.254181,3339.578937 1889.527880,3335.639417"/>
    <poly id="137189970" type="building.yes" color="255,230,230" fill="1" layer="-1.00" shape="2113.310994,2877.041740 2103.394915,2903.953345 2117.175771,2907.132282 2123.642104,2879.423240 2113.310994,2877.041740"/>
    <poly id="137189971" type="building.yes" color="255,230,230" fill="1" layer="-1.00" shape="2425.550268,2620.919011 2430.794073,2592.383269 2427.029875,2586.287045 2420.445437,2585.264614 2419.212996,2582.407613 2409.662986,2580.936225 2407.279014,2582.720516 2401.418515,2581.688539 2395.950004,2585.665753 2390.645890,2614.424191 2394.557787,2620.052513 2400.898899,2621.155794 2402.062170,2624.257768 2411.780149,2626.115208 2414.626322,2623.692472 2420.407545,2624.891910 2425.550268,2620.919011"/>
    <poly id="137189972" type="building.yes" color="255,230,230" fill="1" layer="-1.00" shape="2198.771106,2773.393362 2196.701450,2772.932620 2195.606413,2777.728510 2197.621626,2778.178879 2197.219211,2779.914827 2205.725226,2781.843541 2207.658804,2773.386718 2199.207370,2771.479467 2198.771106,2773.393362"/>
    <poly id="137626086" type="building.yes" color="255,230,230" fill="1" layer="-1.00" shape="2635.625579,3727.309571 2637.690931,3728.835462 2665.373267,3723.289738 2666.604870,3724.726783 2683.248112,3721.356791 2682.799752,3719.609890 2696.173281,3716.715674 2697.107900,3718.278667 2706.596594,3716.567223 2704.205561,3702.687190 2694.015335,3704.729599 2694.039892,3706.593022 2679.646246,3709.678187 2669.174467,3667.016586 2661.983381,3668.653405 2661.228769,3664.270234 2631.454382,3670.398234 2633.567725,3681.053637 2628.796029,3682.924833 2627.662003,3679.966665 2626.114539,3677.224729 2624.574553,3675.736288 2623.289983,3675.087603 2621.472029,3675.167044 2611.577242,3679.712835 2616.287766,3691.731795 2620.420293,3691.488705 2635.625579,3727.309571"/>
    <poly id="137626087" type="building.yes" color="255,230,230" fill="1" layer="-1.00" shape="1568.881711,3809.798860 1575.610564,3806.769476 1570.128838,3794.705806 1563.409025,3797.735073 1568.881711,3809.798860"/>
    <poly id="137626091" type="amenity.townhall" color="237,199,199" fill="1" layer="-1.00" shape="2674.060798,3673.841388 2691.133350,3670.765287 2685.859890,3645.552169 2628.317399,3658.979768 2630.544825,3667.991793 2671.057790,3660.224584 2674.060798,3673.841388"/>
    <poly id="137626091#1" type="building.yes" color="255,230,230" fill="1" layer="-1.00" shape="2674.060798,3673.841388 2691.133350,3670.765287 2685.859890,3645.552169 2628.317399,3658.979768 2630.544825,3667.991793 2671.057790,3660.224584 2674.060798,3673.841388"/>
    <poly id="137626092" type="building.yes" color="255,230,230" fill="1" layer="-1.00" shape="2709.960634,3732.863964 2709.256496,3748.104938 2724.659313,3748.811674 2725.716827,3719.177475 2704.644708,3718.157160 2703.857667,3732.600479 2709.960634,3732.863964"/>
    <poly id="137626093" type="building.yes" color="255,230,230" fill="1" layer="-1.00" shape="1502.355483,3833.437656 1506.025660,3841.975390 1523.256067,3835.167402 1519.581959,3825.653459 1502.355483,3833.437656"/>
    <poly id="137626095" type="building.yes" color="255,230,230" fill="1" layer="-1.00" shape="2628.562777,3862.202710 2649.053321,3858.260505 2645.781420,3841.407880 2625.290838,3845.350092 2628.562777,3862.202710"/>
    <poly id="137626097" type="amenity.hospital" color="237,199,199" fill="1" layer="-1.00" shape="1345.661942,3641.416933 1367.677310,3629.652509 1375.769727,3645.408789 1440.150943,3612.157159 1441.366808,3609.678143 1433.955359,3596.120401 1432.147360,3595.589794 1442.749268,3590.489656 1424.853566,3555.538515 1326.489191,3607.769880 1345.661942,3641.416933"/>
    <poly id="137626097#1" type="building.yes" color="255,230,230" fill="1" layer="-1.00" shape="1345.661942,3641.416933 1367.677310,3629.652509 1375.769727,3645.408789 1440.150943,3612.157159 1441.366808,3609.678143 1433.955359,3596.120401 1432.147360,3595.589794 1442.749268,3590.489656 1424.853566,3555.538515 1326.489191,3607.769880 1345.661942,3641.416933"/>
    <poly id="137626099" type="building.yes" color="255,230,230" fill="1" layer="-1.00" shape="2485.601683,3780.941415 2492.714555,3778.872825 2490.001811,3770.810204 2483.068284,3772.754398 2485.601683,3780.941415"/>
    <poly id="137626100" type="building.yes" color="255,230,230" fill="1" layer="-1.00" shape="1654.199289,3744.930266 1627.051659,3690.609989 1618.330817,3694.930513 1645.478490,3749.250765 1654.199289,3744.930266"/>
    <poly id="137626102" type="building.yes" color="255,230,230" fill="1" layer="-1.00" shape="2313.622003,3653.638597 2325.179586,3650.290800 2319.937970,3633.042751 2308.377874,3636.201993 2313.622003,3653.638597"/>
    <poly id="137626103" type="building.yes" color="255,230,230" fill="1" layer="-1.00" shape="1540.258908,3799.019398 1547.738310,3795.946723 1541.890969,3782.933868 1534.918990,3786.055263 1540.258908,3799.019398"/>
    <poly id="137626104" type="amenity.love_hotel" color="237,199,199" fill="1" layer="-1.00" shape="2667.134102,3850.689181 2680.523607,3846.962691 2676.212881,3831.621404 2662.823354,3835.347900 2667.134102,3850.689181"/>
    <poly id="137626104#1" type="building.yes" color="255,230,230" fill="1" layer="-1.00" shape="2667.134102,3850.689181 2680.523607,3846.962691 2676.212881,3831.621404 2662.823354,3835.347900 2667.134102,3850.689181"/>
    <poly id="137626105" type="building.yes" color="255,230,230" fill="1" layer="-1.00" shape="2389.504413,3691.985190 2394.098012,3703.351057 2404.639486,3699.129286 2400.045899,3687.763414 2389.504413,3691.985190"/>
    <poly id="137626107" type="building.yes" color="255,230,230" fill="1" layer="-1.00" shape="1480.142123,3783.411966 1482.296925,3788.242355 1499.071364,3780.486329 1496.872068,3775.711997 1480.142123,3783.411966"/>
    <poly id="137626108" type="building.yes" color="255,230,230" fill="1" layer="-1.00" shape="2267.239208,3666.443988 2277.432680,3663.280576 2272.037157,3646.034587 2261.843667,3649.198005 2267.239208,3666.443988"/>
    <poly id="137626109" type="building.yes" color="255,230,230" fill="1" layer="-1.00" shape="1582.503926,3756.245400 1585.114577,3762.012720 1599.463121,3755.564948 1596.852477,3749.797624 1582.503926,3756.245400"/>
    <poly id="137626112" type="building.yes" color="255,230,230" fill="1" layer="-1.00" shape="2429.996884,3714.203536 2433.301531,3720.483323 2444.661436,3716.561415 2441.816348,3710.131336 2429.996884,3714.203536"/>
    <poly id="137626113" type="building.yes" color="255,230,230" fill="1" layer="-1.00" shape="2600.038264,3782.593034 2603.380437,3798.590500 2617.865566,3795.592748 2614.523419,3779.595278 2600.038264,3782.593034"/>
    <poly id="137626115" type="building.yes" color="255,230,230" fill="1" layer="-1.00" shape="2280.436966,3725.532268 2286.898729,3746.081194 2301.706274,3741.458975 2295.244543,3720.910040 2280.436966,3725.532268"/>
    <poly id="137626116" type="building.yes" color="255,230,230" fill="1" layer="-1.00" shape="2460.349241,3736.101111 2463.320575,3743.184060 2475.526561,3738.230394 2478.199933,3743.309313 2482.133167,3741.682071 2476.640534,3729.385065 2460.349241,3736.101111"/>
    <poly id="137626117" type="building.yes" color="255,230,230" fill="1" layer="-1.00" shape="2323.512695,3561.851277 2322.376543,3559.425672 2313.234490,3563.407157 2305.554762,3551.361037 2295.832837,3554.606926 2301.954023,3565.819426 2294.635127,3572.849794 2302.902263,3591.677514 2320.406275,3586.320779 2314.568431,3566.418115 2323.512695,3561.851277"/>