<?xml version="1.0" encoding="UTF-8"?>

<!-- generated on 2022-02-16 09:16:51 by Eclipse SUMO duarouter Version 1.9.2
<configuration xmlns:xsi="http://www.w3.org/2001/XMLSchema-instance" xsi:noNamespaceSchemaLocation="http://sumo.dlr.de/xsd/duarouterConfiguration.xsd">

    <input>
        <net-file value="osm.net.xml"/>
        <route-files value="trips.trips.xml"/>
    </input>

    <output>
        <output-file value="testrandom_200.rou.xml"/>
        <alternatives-output value="testrandom_200.rou.alt.xml"/>
    </output>

    <time>
        <begin value="0"/>
        <end value="200"/>
    </time>

    <report>
        <no-warnings value="true"/>
        <ignore-errors value="true"/>
        <no-step-log value="true"/>
    </report>

</configuration>
-->

<routes xmlns:xsi="http://www.w3.org/2001/XMLSchema-instance" xsi:noNamespaceSchemaLocation="http://sumo.dlr.de/xsd/routes_file.xsd">
    <vehicle id="0" depart="0.00">
        <route edges="39393295#0 39393300#0 182487179#1 182487179#2 182487179#3 275655287#0 275655287#2 886671961#0 886671961#1 886671961#2 886671961#3 893372312#3 251308519#0 251308519#1 251308529 965405374#0 965405374#2 965405373#0 965405373#1 170232040#1 170232040#2 170232040#4 170232040#5 170232040#6 170232040#7 170232040#8 170232040#9 170232040#10 -170232040#10"/>
    </vehicle>
    <vehicle id="1a" depart="1.00">
        <route edges="-39683537#2 199152192#1 199152192#2 213526441#2 213526441#4 213526441#6 213526441#7 213526441#9 199152190#0 199152190#1 199152190#2 199152190#3 199152190#4 199152190#5 199152190#6 199152204#0 199152204#1 924378579#0 924378579#1 407608719 45365732#0 45365732#2 45365730#0 45365730#1 251308515#0 251308515#1 251308515#2 251308515#3 251308515#4 170232040#1 170232040#2 170232040#4 170232040#5 39683342#0 39683342#1 39683342#3 39683342#5 39683342#6 39683342#7 39683342#8 -39683341#3 -39683341#2 -39683341#1"/>
    </vehicle>
    <vehicle id="2a" depart="2.00">
        <route edges="39436508#2 39436508#3 39436508#4 856432645#8 856432645#9 294519923#8 294519923#9 294519923#10 294519923#11 294519923#12 294519923#13 294519923#14 294519923#15 294519923#16 294519923#17 886233771 393957072 856432650 952392257 144763024#0 144763024#1 144763024#2 952392263 887586455 59285321#0 59285321#1 26959128#2 26959128#3 144763030#6 144763030#10 261815511#2 157862118#1 157862118#2 157862118#3 -39433575#0 39433575#0"/>
    </vehicle>
    <vehicle id="3a" depart="3.00">
        <route edges="45766797#1 45766798#1 45766798#2 45766798#3 45763024#1 159474691#2 159474691#3 45766800#1 45766800#2 45766800#3 45766796#1 45766796#2 -251308509#3 -251308509#2 -95939308#3 -95939308#2 -95939308#1 -95939308#0 -95939305 -381689884#6 -39383377#2 -39383377#1"/>
    </vehicle>
    <vehicle id="4a" depart="4.00">
        <route edges="196467144 196467142 -196467142"/>
    </vehicle>
    <vehicle id="5a" depart="5.00">
        <route edges="-39501463 137189946#3 -199152230#2 -199152230#1 213526441#6 213526441#7 213526441#9 199152190#0 199152190#1 199152190#2 199152190#3 199152190#4 199152190#5 199152190#6 415221605 886386616 924378577#0 924378577#1 251308516"/>
    </vehicle>
    <vehicle id="6a" depart="6.00">
        <route edges="-170232040#19 39683365#0 375809348#7 375809348#8 375809348#12 375809348#13 375809348#14 375809348#15 375809348#16 375809348#17 375809348#18 251308514#0 251308514#1 251308514#2 45365731#2 407608718 924844760 45365733#0 45365733#1 886386615#0 886386615#1 886386615#3 245926142#0 245926142#1 245926142#2 245926142#6 245926142#7 245926142#10 39436610#1 39436603#6 39436611#0 -39436611#0"/>
    </vehicle>
    <vehicle id="7a" depart="7.00">
        <route edges="39433514#1 -39433514#1 -39433514#0 381689885#1 381689885#2 381689885#6 381689885#7 251308523#2 251308523#3 39383378#1 216480472#6 216480472#7 619292956#28 619292956#29 415221610#0 415221610#1 415221610#2 886233768 18570435#0 18570435#1 952392261 952548695#0 952548695#1 856432645#0 856432645#2 856432645#3 856432645#6 856432645#8 856432645#9 18570688#0 18570688#1 18570688#2 18570688#3 415221611#2 415221611#3 415221611#4 258863042#0 258863042#1 258863042#6"/>
    </vehicle>
    <vehicle id="8a" depart="8.00">
        <route edges="-39683341#0 39683341#0 39683341#1 39683341#2 39683341#3 -39683342#8 -39683342#7 -39683342#6 -39683342#5 -39683342#3 -39683342#1 -39683412#1 -39683412#0 -170232040#4 -170232040#2 -170232040#1 19020758#0 19020758#1 19020758#2 19020758#3 19020758#4 19020758#5 144763035#1 144763035#2 144763035#3 144763035#4 275655298#0 275655298#1 275655298#2 275655298#3 275655298#4 116596180 264976789#1 264976789#2 264976793 28916831#1 28916831#2 28916831#4"/>
    </vehicle>
    <vehicle id="9a" depart="9.00">
        <route edges="39683341#0 39683341#1 39683341#2 39683341#3 -39683342#8 -39683342#7 -39683342#6 -39683342#5 -39683342#3 -39683342#1 -39683412#1 -39683412#0 -170232040#4 -170232040#2 -136938168#4 -136938168#3 -136938168#2"/>
    </vehicle>
    <vehicle id="10a" depart="10.00">
        <route edges="39655538#0 39655538#1 254801235#5 39436538#2 39436538#3 39436538#4 817778879#0 817778879#1 -144775072#5 -144775072#4 -144775072#3 -144775072#2 -144775072#1 294519923#8 294519923#9 294519923#10 294519923#11 294519923#12 294519923#13 294519923#14 294519923#15 294519923#16 294519923#17 886233771 393957072 856432650 952392257 251308530 952392258 952392260 952548695#0 39433592#0 39433592#1"/>
    </vehicle>
    <vehicle id="11a" depart="11.00">
        <route edges="143327353 218879500#1 218879500#2 39433576#2 157862118#3 157862118#4 157862118#5 157862118#6 157862118#7 157862118#8 619292956#10 619292956#11 619292956#12 619292956#13 619292956#14 619292956#15 619292956#16 619292956#18 619292956#19 619292956#20 619292956#21 619292956#22 -39433580#0 -98727610#0 -39433595#3 -39433595#2 -39433595#1 39433603 -39433603"/>
    </vehicle>
    <vehicle id="12a" depart="12.00">
        <route edges="760595302 28916826 36990038 26959785#0 236959052#1 236959054#0 216480482#1 216480482#2 216480482#3 216480482#4 216480482#5 216480482#6 965405374#2 965405373#0 965405373#1 19020758#0 19020758#1 19020758#2 19020758#3 19020758#4 19020758#5 251308514#0 251308514#1 251308514#2 45365731#2 407608718 924844760 45365733#0 45365733#1 886386616 924378578 199152191#0 199152191#1 199152191#2 199152191#3 199152191#4 199152191#5 199152191#6 199152191#7 199152191#8 199152191#9 199152191#10 -137189946#5 137189946#5"/>
    </vehicle>
    <vehicle id="13a" depart="13.00">
        <route edges="-39393256#1 39393257#2 -39393257#2"/>
    </vehicle>
    <vehicle id="14a" depart="14.00">
        <route edges="39683450 -39683342#8 -39683342#7 -39683342#6 -39683342#5 -39683342#3 -39683342#1 -39683412#1 -39683412#0 -170232040#4 -170232040#2 -170232040#1 19020758#0 19020758#1 19020758#2 19020758#3 19020758#4 19020758#5 251308514#0 251308514#1 251308514#2 45365731#2 407608718 924844760 45365733#0 45365733#1 886386615#0 886386615#1 886386615#3 199152193#1 199152193#3 415221611#2 415221611#3 415221611#4 217090091#0 217090091#1 217090090#0 32636352#4"/>
    </vehicle>
    <vehicle id="15a" depart="15.00">
        <route edges="39683334#2 39683334#3 39683334#4 39683334#6 39683334#7 39683334#8 209758753#0 209758753#1 209758753#2 209758753#3 251308524#1 251308524#2 251308524#3 886671962 96781394#0 96781394#1 96781394#2 26959785#0 26959785#4 684145366 157862116#0 157862118#1 157862118#2 157862118#3 157862118#4 157862118#5 157862118#6 157862118#7 157862118#8 619292956#10 619292956#11 619292956#12 619292956#13 619292956#14 -39433625#1 39433625#1"/>
    </vehicle>
    <vehicle id="16a" depart="16.00">
        <route edges="258863042#1 -39445374#2 -39445374#1 32636352#2 32636352#4 32636352#5 217100677#1 217100677#2 217100677#4 217100677#7 217100677#8 217100677#10 217100677#11 199152194#0 199152194#1 199152194#2 199152194#4 926090813#0 926090813#1 926090813#2 886386618#1"/>
    </vehicle>
    <vehicle id="17a" depart="17.00">
        <route edges="157862107#2 157862107#3 157862107#4 381689885#6 381689885#7 261815511#2"/>
    </vehicle>
    <vehicle id="18a" depart="18.00">
        <route edges="39683407#1 -39683341#2 -39683341#1 -39683341#0 39683334#3 39683334#4 39683506#0 39683506#2 375809347#2 375809347#4 -251308511 -381689887#5 -381689887#4 -381689887#2 -381689887#0 381689884#0 381689884#1"/>
    </vehicle>
    <vehicle id="19a" depart="19.00">
        <route edges="39683535#0 39683535#1 199152192#2 213526441#2 213526441#4 213526441#6 213526441#7 213526441#9 199152190#0 199152190#1 199152190#2 199152190#3 199152190#4 199152190#5 199152190#6 415221605 886386615#0 886386615#1 886386615#3 245926142#0 245926142#1 245926142#2 245926142#6 245926142#7 245926142#10 692356901#2 155235380#1 856432637#0 856432637#1 856432636 856432649 856432650 952392257 251308530 -27085402#16 -27085402#15 -27085402#14 -27085402#11 -27085402#9 -27085402#8 -27085402#7 27085402#0"/>
    </vehicle>
    <vehicle id="20a" depart="20.00">
        <route edges="39433614#0 39433614#1 39433614#2 39433614#3 59285321#8 59285321#9 59285321#10 59285321#12 39433623#1 39433623#2 157862107#4 157862107#8 236959050#0 60719572#4 60719572#5 -216480484#5 -216480484#4"/>
    </vehicle>
    <vehicle id="21a" depart="21.00">
        <route edges="-39683365#0 -170232040#18 -170232040#17 -170232040#15 -170232040#14 -170232040#13 -170232040#12 -170232040#11 -170232040#10 -170232040#9 -170232040#8 -170232040#7 -170232040#6 -170232040#5 -170232040#4 -170232040#2 -170232040#1 251308515#6 965405376#0 170232025#0 170232025#1 170232025#2 170232025#3 216480476#2 60719572#4 60719572#5 -216480484#5 -216480484#4 -216480484#3 -216480484#2 -216480484#1 -45644146#9 -45644146#8 -45644146#7"/>
    </vehicle>
    <vehicle id="22a" depart="22.00">
        <route edges="-381689882#0 251308530 952392258 952392259 856432646 155235356#0 155235356#2 155235356#3 -692356901#2 -245926142#10 -245926142#7 -245926142#6 -245926142#2 -245926142#1 -245926142#0 294519922#7 294519922#8 294519922#9 924378578 199152191#0 199152191#1 199152191#2 199152191#3 199152191#4 199152191#5 199152191#6 199152191#7 199152191#8 199152191#9 199152191#10 -137189946#5 39501462#2 39683373#0 -39683373#0"/>
    </vehicle>
    <vehicle id="23a" depart="23.00">
        <route edges="-39393275#2 -39393275#1 216480480#8 381689884#0 381689884#1 381689884#2 381689884#3 381689884#6 95939305 95939308#0 95939308#1 95939308#2 95939308#3 251308509#2 251308509#3 45766796#5 251308529 965405374#0 965405374#2 965405373#0 965405373#1 19020758#0 19020758#1 19020758#2 19020758#3 19020758#4 19020758#5 251308514#0 251308514#1 251308514#2 45365731#2 407608718 924844760 45365733#0 45365733#1 886386616 924378578 199152191#0 199152191#1 199152191#2 199152191#3 199152191#4 199152191#5 199152191#6 199152191#7 199152191#8 199152191#9 199152191#10 199152191#12 199152192#0 39683537#2 39683537#3 -39683537#3"/>
    </vehicle>
    <vehicle id="24a" depart="24.00">
        <route edges="39393276#1 216480480#3 216480480#4 216480480#5 216480480#7 216480480#8 381689884#0 381689884#1 381689884#2 381689884#3 381689884#6 95939305 95939308#0 95939308#1 95939308#2 95939308#3 251308509#2 251308509#3 45766796#5 251308529 965405374#0 965405374#2 965405373#0 965405373#1 19020758#0 19020758#1 19020758#2 19020758#3 19020758#4 19020758#5 251308514#0 251308514#1 251308514#2 45365731#2 407608718 924844760 45365733#0 45365733#1 886386615#0 886386615#1 886386615#3 199152193#1 294519922#3 39436606#1 149586584#0"/>
    </vehicle>
    <vehicle id="25a" depart="25.00">
        <route edges="153989325#0 153989325#1 153989325#2 216896031#6 216896031#7 216896031#8 258863042#0 258863042#1 -39445374#2"/>
    </vehicle>
    <vehicle id="26a" depart="26.00">
        <route edges="-39683511#1 375809348#16 375809348#17 375809348#18 144763035#1 144763035#2 144763035#3 144763035#4 275655298#0 275655298#1 275655298#2 275655298#3 275655298#4 216480481#1 261815516 251455095 170232052 243502036#1 243502036#2 887586457 261815525 59285321#0 59285321#1 59285321#5 59285321#6 59285321#7 59285321#8 59285321#9 59285321#10 59285321#12 59285321#13 59285321#14 59285321#15 59285321#16 59285321#17 59285321#18 59285321#19 619292956#5 619292956#6 619292956#7 619292956#8"/>
    </vehicle>
    <vehicle id="27a" depart="27.00">
        <route edges="393957069#1 393957069#3 251308515#0 251308515#1 251308515#2 251308515#3 251308515#4 251308515#6 965405376#0 965405376#1 965405375 251308524#0 251308524#1 251308524#2 251308524#3 251308524#4 251308524#6 -375809347#4 -375809347#3 -375809347#1 375809347#0"/>
    </vehicle>
    <vehicle id="28a" depart="28.00">
        <route edges="-39433626#1 619292956#16 -39433579#2 -39433579#1 39433624#2 39433624#3 -39433625#0 39433625#0"/>
    </vehicle>
    <vehicle id="29a" depart="29.00">
        <route edges="-39433617 39433617 -39433612#1 619292956#13 619292956#14 619292956#15 619292956#16 619292956#18 619292956#19 619292956#20 619292956#21 619292956#22 619292956#23 619292956#28 619292956#29 415221610#0 415221610#1 415221610#2 886233768 18570435#0 18570435#1 886233770 856432646 155235356#0 155235356#2 155235356#3 -692356901#2 139633245#0 139633245#1 137189955 896047306 155224464#0 155224464#1 155224464#2 155224464#3"/>
    </vehicle>
    <vehicle id="30a" depart="30.00">
        <route edges="95793047#1 39433623#2 157862107#4 157862107#8 236959050#0 60719572#4 60719572#5 689794343#0 689794343#1 -39393272#4 -39393272#2 39393274"/>
    </vehicle>
    <vehicle id="32a" depart="32.00">
        <route edges="39683429 39683407#8 39683407#10 -39683408#3 -39683408#2 -39683408#1 -39683408#0 -170232040#2 -170232040#1 19020758#0 19020758#1 19020758#2 19020758#3 19020758#4 19020758#5 251308514#0 251308514#1 251308514#2 45365731#2 407608718 924844760 45365733#0 45365733#1 886386616 924378578 199152205 199152204#0 199152204#1 424467376 924844761 170232029#0 170232029#1 170232029#2 170232032 39436592#2"/>
    </vehicle>
    <vehicle id="33a" depart="33.00">
        <route edges="-39683368#7 39683368#7 -39683342#1 -39683412#1 -39683412#0 -170232040#4 -170232040#2 -170232040#1 19020758#0 19020758#1 19020758#2 19020758#3 19020758#4 19020758#5 251308514#0 251308514#1 251308514#2 45365731#2 407608718 924844760 45365733#0 45365733#1 886386615#0 886386615#1 886386615#3 199152193#1 199152193#3 294519923#1 294519923#2 294519923#3 294519923#4 294519923#5 144775072#1 144775072#2 144775072#3 144775072#4 144775072#5 196467150#1 -196467150#1"/>
    </vehicle>
    <vehicle id="34a" depart="34.00">
        <route edges="-95939308#2 -95939308#1 -95939308#0 -95939305 -381689884#6 -381689884#3 -381689884#2 -381689884#1 -381689884#0 381689887#0 381689887#2 381689887#3 381689887#5 251308511 -375809347#4 -375809347#3 -39683506#2 -39683506#0"/>
    </vehicle>
    <vehicle id="35a" depart="35.00">
        <route edges="-39445374#2 -39445374#1 32636352#2 217090090#2 294519949#4 294519949#5 294519949#6 688686080#1 688686080#2"/>
    </vehicle>
    <vehicle id="36a" depart="36.00">
        <route edges="453997080 39683368#4 39683368#6 39683368#7 -39683342#1 -39683412#1 -39683412#0 -170232040#4 -170232040#2 -170232040#1 251308515#6 965405376#0 170232025#0 170232025#1 170232025#2 170232025#3 216480479#1 216480479#2 216480479#3 216480479#4 216480472#1 216480472#2 216480472#6 216480472#7 59285321#5 59285321#6 59285321#7 59285321#8 59285321#9 95793050#1 95793050#2 -95793050#2"/>
    </vehicle>
    <vehicle id="37a" depart="37.00">
        <route edges="39433556#5 39433556#6 39433556#8 -67113649#1 -67113649#0 275655298#1 275655298#2 275655298#3 275655298#4 216480481#1 261815516 251455095 170232052 238709695#1 251455100#0 251455100#1 -381689882#4 -381689882#3 -381689882#2 -381689882#1 -381689882#0 251308530 -27085402#16 -27085402#15 -27085402#14 39433596#0 39433596#1 39433596#2 230562268 158789784#0"/>
    </vehicle>
    <vehicle id="38a" depart="38.00">
        <route edges="619292956#0 619292956#2 619292956#5 619292956#6 619292956#7 619292956#8 619292956#9 619292956#10 619292956#11 619292956#12 619292956#13 619292956#14 619292956#15 619292956#16 619292956#18 619292956#19 619292956#20 619292956#21 619292956#22 619292956#23 26959128#2 26959128#3 251308510#2 251308510#3 216480483#1 216480483#2 216480483#3 216480483#4 216480483#5 216480483#6 216480476#2"/>
    </vehicle>
    <vehicle id="39a" depart="39.00">
        <route edges="-39683506#0 39683334#6 39683334#7 39683334#8 -39683431#1 -39683431#0 39683422#5 39683422#6 39683407#10 -39683408#3"/>
    </vehicle>
    <vehicle id="40a" depart="40.00">
        <route edges="26959785#0 236959052#1 236959054#0 216480482#1 216480482#2 216480482#3 216480482#4 216480482#5 216480482#6 965405374#2 965405373#0 965405373#1 170232040#1 170232040#2 170232040#4 170232040#5 170232040#6 170232040#7 170232040#8 170232040#9 170232040#10 170232040#11 170232040#12 170232040#13 -39683455#1 -39683455#0"/>
    </vehicle>
    <vehicle id="41a" depart="41.00">
        <route edges="294519923#11 294519923#12 294519923#13 294519923#14 294519923#15 294519923#16 294519923#17 886233771 393957072 856432650 952392257 144763024#0 144763024#1 144763024#2 952392263 887586455 59285321#0 59285321#1 59285321#5 59285321#6 59285321#7 59285321#8 59285321#9 59285321#10 59285321#12 59285321#13 59285321#14 59285321#15 59285321#16 59285321#17 59285321#18 59285321#19 45644146#1 45644146#2 45644146#3 45644146#5"/>
    </vehicle>
    <vehicle id="42a" depart="42.00">
        <route edges="170232029#2 138533178#0 138533178#1 285908110#1 924378580 199152191#5 199152191#6 199152191#7 199152191#8 199152191#9 -39501461#0"/>
    </vehicle>
    <vehicle id="43a" depart="43.00">
        <route edges="96781394#1 39383377#1 39383377#2 381689884#6 95939305 95939308#0 95939308#1 95939308#2 95939308#3 251308509#2 251308509#3 45766796#5 251308529 965405374#0 965405374#2 965405373#0 965405373#1 19020758#0 19020758#1 19020758#2 19020758#3 19020758#4 19020758#5 251308514#0 251308514#1 251308514#2 45365731#2 407608718 924844760 45365733#0 45365733#1 886386616 924378577#0 924378577#1 251308516"/>
    </vehicle>
    <vehicle id="44a" depart="44.00">
        <route edges="-39393255#0 39393255#0 39393256#0 39393257#2 216480484#4 216480484#5 689794343#0 689794343#1 689794343#2 381689884#0 381689884#1 381689884#2 381689884#3 381689884#6 95939305 95939308#0 39683433#0 39683433#1 -220735552"/>
    </vehicle>
    <vehicle id="45a" depart="45.00">
        <route edges="-39393295#1 -39393295#0 39393295#9 216480480#4 216480480#5 216480480#7 216480480#8 -689794343#2 -689794343#1 -689794343#0 -216480484#5 -216480484#4 -216480484#3 -216480484#2 -216480484#1 -45644146#9 39393242#1 39393242#2"/>
    </vehicle>
    <vehicle id="46a" depart="46.00">
        <route edges="39445374#2 -39445374#2 -39445374#1 32636352#2 32636352#4 32636352#5 258863046#0 258863046#1 258863046#2 258863046#3 294519922#1 294519922#3 294519922#4 294519922#7 294519922#8 294519922#9 924378578 199152205 199152204#0 199152204#1 924378579#0 924378579#1 407608719 45365732#0 45365732#2 45365730#0 45365730#1 251308515#0 251308515#1 251308515#2 251308515#3 251308515#4 251308515#6 965405376#0 170232025#0 170232025#1 170232025#2 170232025#3 216480476#2 236959053#2 186583188"/>
    </vehicle>
    <vehicle id="47a" depart="47.00">
        <route edges="-27085402#7 27085402#0 27085402#8 27085402#9 27085402#11 27085402#14 27085402#15 27085402#16 886233770 856432646 155235356#0 155235356#2 155235356#3"/>
    </vehicle>
    <vehicle id="48a" depart="48.00">
        <route edges="965405374#2 965405373#0 965405373#1 -251311714#15 -251311714#13 -251311714#12 -251311714#10 -251311714#9 -251311714#8 -251311714#7 -251311714#6 -251311714#3 -251311714#2 -251311714#1 251311713#0 251311713#1"/>
    </vehicle>
    <vehicle id="49a" depart="49.00">
        <route edges="886386618#1 -886386618#2 926090812#0 926090812#1 926090812#3 149672907#0 149672907#1 199152206#0 199152206#1 199152206#2 199152205 199152204#0 199152204#1 924378579#0 924378579#1 407608719 45365732#0 45365732#2 45365730#0 45365730#1 251308515#0 251308515#1 251308515#2 251308515#3 251308515#4 170232040#1 170232040#2 39683408#0 39683408#1 39683408#2 39683408#3 -39683407#10 -39683407#8 -39683407#7 -39683407#6 -39683407#5 -39683407#3 -39683375#4 -39683375#3 -39683375#2 39683439#0 39683439#1"/>
    </vehicle>
    <vehicle id="50a" depart="50.00">
        <route edges="-137189955 -139633245#1 -139633245#0 692356901#2 155235380#1 856432637#0 856432637#1 155235390 856432638#0 856432638#1 952392256 144763024#0 144763024#1 144763024#2 952392263 887586455 59285321#0 59285321#1 59285321#5 59285321#6 59285321#7 59285321#8 59285321#9 59285321#10 -39433579#2 -39433579#1 39433624#2 39433624#3 39433624#4 -39433618#0 -39433617 39433617"/>
    </vehicle>
    <vehicle id="51a" depart="51.00">
        <route edges="39433590#7 619292956#29 415221610#0 415221610#1 415221610#2 886233768 18570435#0 18570435#1 952392261 952548695#0 952548695#1 856432645#0 856432645#2 856432645#3 856432645#6 856432645#8 856432645#9 18570688#0 18570688#1 18570688#2 18570688#3 415221611#2 415221611#3 415221611#4 258863042#0 258863042#1"/>
    </vehicle>
    <vehicle id="52a" depart="52.00">
        <route edges="-39683511#1 375809348#16 375809348#17 375809348#18 251308515#0 251308515#1 251308515#2 251308515#3 251308515#4 251308515#6 965405376#0 965405376#1 965405375 251308528#0 -251308509#3 -251308509#2 -95939308#3 -95939308#2 -95939308#1 -95939308#0 -95939305 -381689884#6 -381689884#3 -381689884#2 -381689884#1 -381689884#0 -216480480#8 -39393275#0 39393275#0"/>
    </vehicle>
    <vehicle id="53a" depart="53.00">
        <route edges="-39393295#9 39393295#0 39393300#0 182487179#1 182487179#2 182487179#3 275655287#0 275655287#2 886671961#0 886671961#1 886671961#2 886671961#3 893372312#3 251308519#0 251308519#1 251308529 965405374#0 965405374#2 965405373#0 965405373#1 19020758#0 19020758#1 19020758#2 19020758#3 19020758#4 19020758#5 251308514#0 251308514#1 251308514#2 45365731#2 407608718 924844760 45365733#0 45365733#1 886386616 924378578 199152191#0 199152191#1 199152191#2 199152191#3 199152191#4 199152191#5 199152191#6 199152191#7 199152191#8 199152191#9 199152191#10 199152191#12 213526441#6 213526441#7 213526441#9 199152190#0 199152190#1"/>
    </vehicle>
    <vehicle id="54a" depart="54.00">
        <route edges="216480476#2 236959053#2 26959777#0 26959777#1 251308524#4 251308524#6 285189314#0 285189314#1 692488024"/>
    </vehicle>
    <vehicle id="55a" depart="55.00">
        <route edges="453997080 -39683368#3 -39683368#1 -39683368#0 170232040#13 -39683455#1"/>
    </vehicle>
    <vehicle id="56a" depart="56.00">
        <route edges="245926142#1 245926142#2 -245926142#2 -245926142#1 -245926142#0 199152193#1 199152193#3 294519923#1 294519923#2 294519923#3 294519923#4 294519923#5 144775072#1 144775072#2 144775072#3 144775072#4 144775072#5 196467159#1 196467159#2 196467159#3 196467159#4 196467159#5 196467159#6 196467159#7 196467159#8 -196467143#1 -196467143#0 -196467145 -39436500#1"/>
    </vehicle>
    <vehicle id="57a" depart="57.00">
        <route edges="60719572#4 -95939306#1 381689884#6 95939305 95939308#0 95939308#1 95939308#2 95939308#3 251308509#2 251308509#3 45766796#5 251308529 965405374#0 965405374#2 965405373#0 965405373#1 170232040#1 -136938168#4 -136938168#3 -39683511#3 39683511#3"/>
    </vehicle>
    <vehicle id="58a" depart="58.00">
        <route edges="-689794343#2 -39393272#4 39393273"/>
    </vehicle>
    <vehicle id="59a" depart="59.00">
        <route edges="381689884#1 381689884#2 381689884#3 381689884#6 95939305 95939308#0 95939308#1 95939308#2 95939308#3 36990137#1 36990137#2 36990137#3 89882383#1 89882383#2 89882383#3 45763023#1 45763023#2 251308523#2 251308523#3 39383378#1 216480472#6 216480472#7 619292956#28 619292956#29 415221610#0 39433591#0 39433591#1 39433591#2 39433591#3 39433591#4 39433591#5 -39433596#0"/>
    </vehicle>
    <vehicle id="60a" depart="60.00">
        <route edges="39436590#1 144775070#9 144775070#10 -39436538#4 -39436538#3 -39436538#2 294519949#1 32636352#0 32636352#1 32636352#2 32636352#4 32636352#5 258863042#0 258863042#1"/>
    </vehicle>
    <vehicle id="61a" depart="61.00">
        <route edges="39436613#0 155235356#2 155235356#3 155235380#1 856432637#0 856432637#1 155235390 856432638#0 856432638#1 952392256 144763024#0 144763024#1 144763024#2 952392263 887586455 887586458 144763014 261815503#0 886645247#0 886645247#1 251311714#1 251311714#2 251311714#3 251311714#6 251311714#7 251311714#8 251311714#9 251311714#10 251311714#12 251311714#13"/>
    </vehicle>
    <vehicle id="62a" depart="62.00">
        <route edges="-107719979#0 107719979#0 107719979#1 107719979#2"/>
    </vehicle>
    <vehicle id="63a" depart="63.00">
        <route edges="-149672905#3 -149672905#1 -149672905#0 199152194#2 199152194#4 149672907#0 149672907#1 199152206#0 199152206#1 199152206#2 199152205 199152204#0 199152204#1 924378579#0 924378579#1 407608719 45365732#0 45365732#2 45365730#0 45365730#1 251308515#0 251308515#1 251308515#2 251308515#3 251308515#4 251308515#6 965405376#0 170232025#0 170232025#1 170232025#2 170232025#3 216480476#2 60719572#4"/>
    </vehicle>
    <vehicle id="64a" depart="64.00">
        <route edges="453997085 -39683368#1 39683368#1"/>
    </vehicle>
    <vehicle id="65a" depart="65.00">
        <route edges="-91896629#1 251308527#2 251308527#3 251308527#4 251308527#5 199152243 39436612#1 39436612#2 39436612#5 39436612#6 245926142#0 245926142#1 245926142#2 245926142#6 245926142#7 245926142#10 692356901#2 155235380#1 856432637#0 856432637#1 155235390 856432638#0 856432638#1 952392256 144763024#0 144763024#1 144763024#2 952392263 887586455 887586458 144763014 261815503#0 -261815503#1"/>
    </vehicle>
    <vehicle id="66a" depart="66.00">
        <route edges="453997083 137189947 453997079#1 39683368#3 39683368#4 39683368#6 39683368#7 -39683342#1 -39683412#1 -39683412#0 -170232040#4 -170232040#2 -170232040#1 251308515#6 965405376#0 170232025#0 170232025#1 170232025#2 170232025#3 216480476#2 60719572#4 60719572#5 689794343#0 689794343#1"/>
    </vehicle>
    <vehicle id="67a" depart="67.00">
        <route edges="-39383377#1 96781394#2 26959785#0 236959052#1"/>
    </vehicle>
    <vehicle id="68a" depart="68.00">
        <route edges="-285908106 170232032 692356898#1 692356898#2 692356898#3 692356898#4 245926142#10 692356901#2 155235380#1 856432637#0 856432637#1 155235371 39436502 856432645#0 856432645#2 856432645#3 39436530#1 39436530#2 39436530#3 369555017#1 -39436516#3 -39436516#2 -39436516#1 -39436516#0 -147237364#3 -39436553#1 -39436553#0 39436553#0"/>
    </vehicle>
    <vehicle id="69a" depart="69.00">
        <route edges="39436594#1 137189954#0 137189954#2 692356900#3 692356900#4 924844760 45365733#0 45365733#1 886386616 924378578 199152205 199152204#0 199152204#1 924378579#0 924378579#1 407608719 45365732#0 45365732#2 45365730#0 45365730#1 144763035#1 144763035#2 -39433557#0 730222249#0 730222249#1 -39433560#1"/>
    </vehicle>
    <vehicle id="70a" depart="70.00">
        <route edges="231774696#3 231774696#4 231774696#5 231774696#6 231774696#7 856432645#0 856432645#2 856432645#3 856432645#6 856432645#8 856432645#9 18570688#0 18570688#1 18570688#2 18570688#3 415221611#2 415221611#3 415221611#4 258863046#0 258863046#1"/>
    </vehicle>
    <vehicle id="71a" depart="71.00">
        <route edges="-39683506#0 39683334#6 39683334#7 39683334#8 -39683431#1 -39683431#0 39683422#5 39683422#6 39683407#10 -39683408#3 -39683408#2 -39683408#1 -39683408#0 -170232040#2 -170232040#1 19020758#0 19020758#1 19020758#2 19020758#3 19020758#4 19020758#5 251308514#0 251308514#1 251308514#2 45365731#2 407608718 924844760 45365733#0 45365733#1 886386616 924378578 199152191#0 199152191#1 199152191#2 199152191#3 199152191#4 199152191#5 199152191#6 199152191#7 199152191#8 199152191#9 199152191#10 199152191#12 -199152225#1 39683528#0"/>
    </vehicle>
    <vehicle id="72a" depart="72.00">
        <route edges="196467149 196467141 196467146#0 -196467150#1 -817778879#1 -817778879#0 -39436538#4 -39436538#3 -39436538#2 294519949#1 32636352#0 32636352#1 39445374#1 39445374#2 -39445374#2"/>
    </vehicle>
    <vehicle id="73a" depart="73.00">
        <route edges="258863042#1 -39445374#2 -39445374#1 32636352#2 32636352#4 32636352#5 258863046#0 258863046#1 258863046#2 258863046#3 294519923#1 294519923#2 294519923#3 294519923#4 294519923#5 294519923#8 294519923#9 294519923#10 294519923#11 294519923#12 294519923#13 294519923#14 294519923#15 294519923#16 294519923#17 886233771 393957072 856432650 952392257 144763024#0 144763024#1 144763024#2 952392263 887586455 59285321#0 59285321#1 59285321#5 59285321#6 59285321#7 59285321#8 59285321#9 59285321#10 -39433579#2 -39433579#1 39433624#2 39433624#3 39433625#1"/>
    </vehicle>
    <vehicle id="74a" depart="74.00">
        <route edges="-39436623#0 39436623#0 -139633245#1 -139633245#0 692356901#2 155235380#1 856432637#0 856432637#1 155235390 856432638#0 856432638#1 952392256 144763024#0 144763024#1 144763024#2 952392263 887586455 59285321#0 59285321#1 59285321#5 -95793041#1 -95793042#1"/>
    </vehicle>
    <vehicle id="75a" depart="75.00">
        <route edges="95939308#2 95939308#3 -95939308#3 -95939308#2 -95939308#1 -95939308#0 -95939305 -381689884#6 -381689884#3 -381689884#2 -381689884#1 -381689884#0 -216480480#8 -216480480#7 -216480480#5 -216480480#4 -39393295#9 39393295#0 39393295#1"/>
    </vehicle>
    <vehicle id="76a" depart="76.00">