<?xml version="1.0" encoding="UTF-8"?>

<!-- generated on 2022-12-26 14:27:05 by Eclipse SUMO netconvert Version 1.11.0
<configuration xmlns:xsi="http://www.w3.org/2001/XMLSchema-instance" xsi:noNamespaceSchemaLocation="http://sumo.dlr.de/xsd/netconvertConfiguration.xsd">

    <input>
        <type-files value="/home/narisu/src/omnet/sumo-src-1.11.0/data/typemap/osmNetconvert.typ.xml"/>
        <osm-files value="osm_bbox.osm.xml"/>
    </input>

    <output>
        <output-file value="osm.net.xml"/>
        <output.street-names value="true"/>
        <output.original-names value="true"/>
    </output>

    <projection>
        <proj.utm value="true"/>
    </projection>

    <processing>
        <geometry.remove value="true"/>
        <roundabouts.guess value="true"/>
    </processing>

    <tls_building>
        <tls.discard-simple value="true"/>
        <tls.join value="true"/>
        <tls.guess-signals value="true"/>
        <tls.default-type value="actuated"/>
    </tls_building>

    <ramp_guessing>
        <ramps.guess value="true"/>
    </ramp_guessing>

    <junctions>
        <junctions.join value="true"/>
        <junctions.corner-detail value="5"/>
    </junctions>

    <report>
        <verbose value="true"/>
        <aggregate-warnings value="5"/>
    </report>

</configuration>
-->

<net version="1.9" junctionCornerDetail="5" limitTurnSpeed="5.50" xmlns:xsi="http://www.w3.org/2001/XMLSchema-instance" xsi:noNamespaceSchemaLocation="http://sumo.dlr.de/xsd/net_file.xsd">

    <location netOffset="-387166.90,-3933155.08" convBoundary="0.00,0.00,3555.44,2875.20" origBoundary="139.755175,35.535927,139.794387,35.584992" projParameter="+proj=utm +zone=54 +ellps=WGS84 +datum=WGS84 +units=m +no_defs"/>

    <type id="highway.bridleway" priority="1" numLanes="1" speed="2.78" allow="pedestrian" oneway="1" width="2.00"/>
    <type id="highway.bus_guideway" priority="1" numLanes="1" speed="27.78" allow="bus" oneway="1"/>
    <type id="highway.cycleway" priority="1" numLanes="1" speed="8.33" allow="bicycle" oneway="0" width="1.00"/>
    <type id="highway.footway" priority="1" numLanes="1" speed="2.78" allow="pedestrian" oneway="1" width="2.00"/>
    <type id="highway.ford" priority="1" numLanes="1" speed="2.78" allow="army" oneway="0"/>
    <type id="highway.living_street" priority="2" numLanes="1" speed="2.78" disallow="tram rail_urban rail rail_electric rail_fast ship" oneway="0"/>
    <type id="highway.motorway" priority="14" numLanes="2" speed="39.44" allow="private emergency authority army vip passenger hov taxi bus coach delivery truck trailer motorcycle evehicle custom1 custom2" oneway="1"/>
    <type id="highway.motorway_link" priority="9" numLanes="1" speed="22.22" allow="private emergency authority army vip passenger hov taxi bus coach delivery truck trailer motorcycle evehicle custom1 custom2" oneway="1"/>
    <type id="highway.path" priority="1" numLanes="1" speed="2.78" allow="pedestrian bicycle" oneway="0" width="2.00"/>
    <type id="highway.pedestrian" priority="1" numLanes="1" speed="2.78" allow="pedestrian" oneway="1" width="2.00"/>
    <type id="highway.primary" priority="12" numLanes="2" speed="27.78" disallow="tram rail_urban rail rail_electric rail_fast ship" oneway="0"/>
    <type id="highway.primary_link" priority="7" numLanes="1" speed="22.22" disallow="tram rail_urban rail rail_electric rail_fast ship" oneway="0"/>
    <type id="highway.raceway" priority="15" numLanes="2" speed="83.33" allow="vip" oneway="0"/>
    <type id="highway.residential" priority="3" numLanes="1" speed="13.89" disallow="tram rail_urban rail rail_electric rail_fast ship" oneway="0"/>
    <type id="highway.secondary" priority="11" numLanes="1" speed="27.78" disallow="tram rail_urban rail rail_electric rail_fast ship" oneway="0"/>
    <type id="highway.secondary_link" priority="6" numLanes="1" speed="22.22" disallow="tram rail_urban rail rail_electric rail_fast ship" oneway="0"/>
    <type id="highway.service" priority="1" numLanes="1" speed="5.56" allow="pedestrian delivery bicycle" oneway="0"/>
    <type id="highway.stairs" priority="1" numLanes="1" speed="1.39" allow="pedestrian" oneway="1" width="2.00"/>
    <type id="highway.step" priority="1" numLanes="1" speed="1.39" allow="pedestrian" oneway="1" width="2.00"/>
    <type id="highway.steps" priority="1" numLanes="1" speed="1.39" allow="pedestrian" oneway="1" width="2.00"/>
    <type id="highway.tertiary" priority="10" numLanes="1" speed="22.22" disallow="tram rail_urban rail rail_electric rail_fast ship" oneway="0"/>
    <type id="highway.tertiary_link" priority="5" numLanes="1" speed="22.22" disallow="tram rail_urban rail rail_electric rail_fast ship" oneway="0"/>
    <type id="highway.track" priority="1" numLanes="1" speed="5.56" allow="pedestrian motorcycle moped bicycle" oneway="0"/>
    <type id="highway.trunk" priority="13" numLanes="2" speed="27.78" disallow="pedestrian bicycle tram rail_urban rail rail_electric rail_fast ship" oneway="0"/>
    <type id="highway.trunk_link" priority="8" numLanes="1" speed="22.22" disallow="pedestrian bicycle tram rail_urban rail rail_electric rail_fast ship" oneway="0"/>
    <type id="highway.unclassified" priority="4" numLanes="1" speed="13.89" disallow="tram rail_urban rail rail_electric rail_fast ship" oneway="0"/>
    <type id="highway.unsurfaced" priority="1" numLanes="1" speed="8.33" disallow="tram rail_urban rail rail_electric rail_fast ship" oneway="0"/>
    <type id="railway.highspeed" priority="21" numLanes="1" speed="69.44" allow="rail_fast" oneway="1"/>
    <type id="railway.light_rail" priority="19" numLanes="1" speed="27.78" allow="rail_urban" oneway="1"/>
    <type id="railway.preserved" priority="16" numLanes="1" speed="27.78" allow="rail" oneway="1"/>
    <type id="railway.rail" priority="20" numLanes="1" speed="44.44" allow="rail" oneway="1"/>
    <type id="railway.subway" priority="18" numLanes="1" speed="27.78" allow="rail_urban" oneway="1"/>
    <type id="railway.tram" priority="17" numLanes="1" speed="13.89" allow="tram" oneway="1"/>

    <edge id=":1819897445_0" function="internal">
        <lane id=":1819897445_0_0" index="0" allow="pedestrian delivery bicycle" speed="5.56" length="14.67" shape="2837.63,2070.16 2824.64,2063.34"/>
    </edge>
    <edge id=":1819897445_1" function="internal">
        <lane id=":1819897445_1_0" index="0" allow="pedestrian delivery bicycle" speed="5.56" length="17.39" shape="2837.63,2070.16 2833.19,2067.19 2832.04,2064.48 2834.18,2062.05 2839.62,2059.89"/>
    </edge>
    <edge id=":1819897445_2" function="internal">
        <lane id=":1819897445_2_0" index="0" allow="pedestrian delivery bicycle" speed="3.65" length="4.67" shape="2837.63,2070.16 2836.93,2068.90 2836.93,2068.01 2837.65,2067.48 2839.09,2067.31"/>
    </edge>
    <edge id=":1819897445_3" function="internal">
        <lane id=":1819897445_3_0" index="0" allow="pedestrian delivery bicycle" speed="4.75" length="7.02" shape="2839.82,2063.16 2837.64,2064.03 2836.79,2065.01 2837.28,2066.11 2839.09,2067.31"/>
    </edge>
    <edge id=":1819897445_4" function="internal">
        <lane id=":1819897445_4_0" index="0" allow="pedestrian delivery bicycle" speed="5.56" length="15.54" shape="2839.82,2063.16 2834.94,2064.29 2830.78,2064.70 2827.35,2064.38 2824.64,2063.34"/>
    </edge>
    <edge id=":1819897445_5" function="internal">
        <lane id=":1819897445_5_0" index="0" allow="pedestrian delivery bicycle" speed="3.68" length="4.79" shape="2839.82,2063.16 2838.54,2062.41 2838.08,2061.62 2838.44,2060.78 2839.62,2059.89"/>
    </edge>
    <edge id=":1819897445_6" function="internal">
        <lane id=":1819897445_6_0" index="0" allow="pedestrian delivery bicycle" speed="5.56" length="13.62" shape="2826.29,2060.59 2828.44,2061.34 2831.38,2061.47 2835.10,2060.99 2839.62,2059.89"/>
    </edge>
    <edge id=":1819897445_7" function="internal">
        <lane id=":1819897445_7_0" index="0" allow="pedestrian delivery bicycle" speed="5.56" length="14.45" shape="2826.29,2060.59 2839.09,2067.31"/>
    </edge>
    <edge id=":1819897445_8" function="internal">
        <lane id=":1819897445_8_0" index="0" allow="pedestrian delivery bicycle" speed="3.65" length="4.67" shape="2826.29,2060.59 2826.91,2061.90 2826.84,2062.79 2826.09,2063.27 2824.64,2063.34"/>
    </edge>
    <edge id=":1819897450_0" function="internal">
        <lane id=":1819897450_0_0" index="0" allow="pedestrian delivery bicycle" speed="3.65" length="4.67" shape="2752.02,2233.68 2750.91,2234.60 2750.03,2234.76 2749.38,2234.15 2748.95,2232.77"/>
    </edge>
    <edge id=":1819897474_0" function="internal">
        <lane id=":1819897474_0_0" index="0" allow="pedestrian delivery bicycle" speed="3.65" length="4.67" shape="3461.61,1432.90 3462.89,1432.24 3463.78,1432.27 3464.29,1433.01 3464.42,1434.45"/>
    </edge>
    <edge id=":1819897475_0" function="internal">
        <lane id=":1819897475_0_0" index="0" allow="pedestrian delivery bicycle" speed="5.27" length="5.31" shape="2935.82,2040.12 2935.25,2038.90 2934.35,2038.14 2933.14,2037.84 2931.61,2037.99"/>
    </edge>
    <edge id=":1819897475_1" function="internal">
        <lane id=":1819897475_1_0" index="0" allow="pedestrian delivery bicycle" speed="5.56" length="9.45" shape="2935.82,2040.12 2933.11,2031.07"/>
    </edge>
    <edge id=":1819897475_2" function="internal">
        <lane id=":1819897475_2_0" index="0" allow="pedestrian delivery bicycle" speed="3.65" length="4.67" shape="2935.82,2040.12 2936.26,2038.75 2936.92,2038.14 2937.80,2038.31 2938.90,2039.24"/>
    </edge>
    <edge id=":1819897475_3" function="internal">
        <lane id=":1819897475_3_0" index="0" allow="pedestrian delivery bicycle" speed="5.56" length="9.52" shape="2936.17,2030.12 2938.90,2039.24"/>
    </edge>
    <edge id=":1819897475_4" function="internal">
        <lane id=":1819897475_4_0" index="0" allow="pedestrian delivery bicycle" speed="5.56" length="10.58" shape="2936.17,2030.12 2936.63,2033.01 2936.02,2035.29 2934.35,2036.95 2931.61,2037.99"/>
    </edge>
    <edge id=":1819897475_5" function="internal">
        <lane id=":1819897475_5_0" index="0" allow="pedestrian delivery bicycle" speed="3.65" length="4.67" shape="2936.17,2030.12 2935.76,2031.50 2935.11,2032.12 2934.23,2031.98 2933.11,2031.07"/>
    </edge>
    <edge id=":1819897475_6" function="internal">
        <lane id=":1819897475_6_0" index="0" allow="pedestrian delivery bicycle" speed="4.96" length="5.10" shape="2930.91,2034.86 2932.23,2034.36 2933.04,2033.56 2933.33,2032.46 2933.11,2031.07"/>
    </edge>
    <edge id=":1819897475_7" function="internal">
        <lane id=":1819897475_7_0" index="0" allow="pedestrian delivery bicycle" speed="5.56" length="10.25" shape="2930.91,2034.86 2933.78,2034.61 2936.07,2035.25 2937.78,2036.80 2938.90,2039.24"/>
    </edge>
    <edge id=":1819897475_8" function="internal">
        <lane id=":1819897475_8_0" index="0" allow="pedestrian delivery bicycle" speed="3.65" length="4.67" shape="2930.91,2034.86 2932.26,2035.38 2932.82,2036.08 2932.60,2036.94 2931.61,2037.99"/>
    </edge>
    <edge id=":1821669056_0" function="internal">
        <lane id=":1821669056_0_0" index="0" allow="pedestrian delivery bicycle" speed="3.65" length="4.67" shape="2835.24,2672.19 2833.96,2672.86 2833.07,2672.82 2832.56,2672.08 2832.45,2670.64"/>
    </edge>
    <edge id=":1821669061_0" function="internal">
        <lane id=":1821669061_0_0" index="0" allow="pedestrian delivery bicycle" speed="5.56" length="9.43" shape="3400.18,1666.05 3395.52,1674.24"/>
    </edge>
    <edge id=":1821669061_1" function="internal">
        <lane id=":1821669061_1_0" index="0" allow="pedestrian delivery bicycle" speed="5.56" length="10.18" shape="3400.18,1666.05 3398.48,1668.25 3396.48,1669.38 3394.18,1669.44 3391.58,1668.42"/>
    </edge>
    <edge id=":1821669061_2" function="internal">
        <lane id=":1821669061_2_0" index="0" allow="pedestrian delivery bicycle" speed="3.65" length="4.67" shape="3400.18,1666.05 3398.90,1666.70 3398.00,1666.65 3397.50,1665.91 3397.40,1664.47"/>
    </edge>
    <edge id=":1821669061_3" function="internal">
        <lane id=":1821669061_3_0" index="0" allow="pedestrian delivery bicycle" speed="5.04" length="5.01" shape="3393.16,1665.63 3394.44,1666.14 3395.58,1666.11 3396.56,1665.56 3397.40,1664.47"/>
    </edge>
    <edge id=":1821669061_4" function="internal">
        <lane id=":1821669061_4_0" index="0" allow="pedestrian delivery bicycle" speed="5.56" length="10.19" shape="3393.16,1665.63 3395.37,1667.34 3396.50,1669.35 3396.55,1671.65 3395.52,1674.24"/>
    </edge>
    <edge id=":1821669061_5" function="internal">
        <lane id=":1821669061_5_0" index="0" allow="pedestrian delivery bicycle" speed="3.65" length="4.67" shape="3393.16,1665.63 3393.81,1666.92 3393.76,1667.82 3393.02,1668.31 3391.58,1668.42"/>
    </edge>
    <edge id=":1821669061_6" function="internal">
        <lane id=":1821669061_6_0" index="0" allow="pedestrian delivery bicycle" speed="5.03" length="5.01" shape="3392.74,1672.65 3393.25,1671.37 3393.23,1670.24 3392.67,1669.26 3391.58,1668.42"/>
    </edge>
    <edge id=":1821669061_7" function="internal">
        <lane id=":1821669061_7_0" index="0" allow="pedestrian delivery bicycle" speed="5.56" length="9.41" shape="3392.74,1672.65 3397.40,1664.47"/>
    </edge>
    <edge id=":1821669061_8" function="internal">
        <lane id=":1821669061_8_0" index="0" allow="pedestrian delivery bicycle" speed="3.65" length="4.67" shape="3392.74,1672.65 3394.03,1672.01 3394.93,1672.06 3395.42,1672.80 3395.52,1674.24"/>
    </edge>
    <edge id=":1822087131_0" function="internal">
        <lane id=":1822087131_0_0" index="0" allow="pedestrian delivery bicycle" speed="5.56" length="7.07" shape="2408.85,1687.61 2407.72,1688.22 2406.81,1689.41 2406.11,1691.18 2405.63,1693.52"/>
    </edge>
    <edge id=":1822087131_1" function="internal">
        <lane id=":1822087131_1_0" index="0" allow="pedestrian delivery bicycle" speed="5.56" length="9.99" shape="2408.85,1687.61 2399.22,1690.23"/>
    </edge>
    <edge id=":1822087131_2" function="internal">
        <lane id=":1822087131_2_0" index="0" allow="pedestrian delivery bicycle" speed="3.65" length="4.67" shape="2408.85,1687.61 2407.49,1687.14 2406.90,1686.47 2407.09,1685.59 2408.04,1684.52"/>
    </edge>
    <edge id=":1822087131_3" function="internal">
        <lane id=":1822087131_3_0" index="0" allow="pedestrian delivery bicycle" speed="5.56" length="10.03" shape="2398.36,1687.14 2408.04,1684.52"/>
    </edge>
    <edge id=":1822087131_4" function="internal">
        <lane id=":1822087131_4_0" index="0" allow="pedestrian delivery bicycle" speed="5.56" length="12.52" shape="2398.36,1687.14 2402.00,1686.66 2404.43,1687.56 2405.64,1689.85 2405.63,1693.52"/>
    </edge>
    <edge id=":1822087131_5" function="internal">
        <lane id=":1822087131_5_0" index="0" allow="pedestrian delivery bicycle" speed="3.65" length="4.67" shape="2398.36,1687.14 2399.73,1687.59 2400.33,1688.26 2400.16,1689.14 2399.22,1690.23"/>
    </edge>
    <edge id=":1822087131_6" function="internal">
        <lane id=":1822087131_6_0" index="0" allow="pedestrian delivery bicycle" speed="4.72" length="5.59" shape="2402.47,1693.08 2402.47,1691.44 2401.93,1690.41 2400.84,1690.01 2399.22,1690.23"/>
    </edge>
    <edge id=":1822087131_7" function="internal">
        <lane id=":1822087131_7_0" index="0" allow="pedestrian delivery bicycle" speed="5.56" length="10.83" shape="2402.47,1693.08 2403.20,1689.78 2404.38,1687.25 2405.99,1685.50 2408.04,1684.52"/>
    </edge>
    <edge id=":1822087131_8" function="internal">
        <lane id=":1822087131_8_0" index="0" allow="pedestrian delivery bicycle" speed="3.65" length="4.67" shape="2402.47,1693.08 2403.42,1692.00 2404.27,1691.71 2405.01,1692.22 2405.63,1693.52"/>
    </edge>
    <edge id=":1822087133_0" function="internal">
        <lane id=":1822087133_0_0" index="0" allow="pedestrian delivery bicycle" speed="3.65" length="4.67" shape="1967.35,2558.32 1966.06,2558.97 1965.17,2558.93 1964.67,2558.19 1964.56,2556.75"/>
    </edge>
    <edge id=":1822087167_0" function="internal">
        <lane id=":1822087167_0_0" index="0" allow="pedestrian delivery bicycle" speed="5.56" length="3.71" shape="2283.99,1998.39 2285.31,2002.60"/>
        <lane id=":1822087167_0_1" index="1" allow="pedestrian delivery bicycle" speed="5.56" length="3.71" shape="2283.99,1998.39 2282.53,2001.02"/>
    </edge>
    <edge id=":1822087167_2" function="internal">
        <lane id=":1822087167_2_0" index="0" allow="pedestrian delivery bicycle" speed="5.56" length="4.33" shape="2276.97,1997.86 2281.18,1996.86"/>
    </edge>
    <edge id=":1822087212_0" function="internal">
        <lane id=":1822087212_0_0" index="0" allow="pedestrian delivery bicycle" speed="5.56" length="9.33" shape="2360.42,1784.63 2352.25,1780.13"/>
    </edge>
    <edge id=":1822087212_1" function="internal">
        <lane id=":1822087212_1_0" index="0" allow="pedestrian delivery bicycle" speed="5.56" length="10.19" shape="2360.42,1784.63 2358.20,1782.93 2357.06,1780.93 2357.01,1778.63 2358.04,1776.03"/>
    </edge>
    <edge id=":1822087212_2" function="internal">
        <lane id=":1822087212_2_0" index="0" allow="pedestrian delivery bicycle" speed="3.65" length="4.67" shape="2360.42,1784.63 2359.77,1783.35 2359.81,1782.45 2360.55,1781.95 2361.99,1781.84"/>
    </edge>
    <edge id=":1822087212_3" function="internal">
        <lane id=":1822087212_3_0" index="0" allow="pedestrian delivery bicycle" speed="5.03" length="5.01" shape="2360.82,1777.62 2360.31,1778.89 2360.34,1780.02 2360.90,1781.01 2361.99,1781.84"/>
    </edge>
    <edge id=":1822087212_4" function="internal">
        <lane id=":1822087212_4_0" index="0" allow="pedestrian delivery bicycle" speed="5.56" length="10.13" shape="2360.82,1777.62 2359.11,1779.82 2357.12,1780.97 2354.83,1781.08 2352.25,1780.13"/>
    </edge>
    <edge id=":1822087212_5" function="internal">
        <lane id=":1822087212_5_0" index="0" allow="pedestrian delivery bicycle" speed="3.65" length="4.67" shape="2360.82,1777.62 2359.53,1778.26 2358.63,1778.21 2358.14,1777.47 2358.04,1776.03"/>
    </edge>
    <edge id=":1822087212_6" function="internal">
        <lane id=":1822087212_6_0" index="0" allow="pedestrian delivery bicycle" speed="5.10" length="5.05" shape="2353.78,1777.31 2355.05,1777.78 2356.19,1777.72 2357.18,1777.14 2358.04,1776.03"/>
    </edge>
    <edge id=":1822087212_7" function="internal">
        <lane id=":1822087212_7_0" index="0" allow="pedestrian delivery bicycle" speed="5.56" length="9.38" shape="2353.78,1777.31 2361.99,1781.84"/>
    </edge>
    <edge id=":1822087212_8" function="internal">
        <lane id=":1822087212_8_0" index="0" allow="pedestrian delivery bicycle" speed="3.65" length="4.67" shape="2353.78,1777.31 2354.45,1778.59 2354.42,1779.48 2353.69,1780.00 2352.25,1780.13"/>
    </edge>
    <edge id=":1822087214_0" function="internal">
        <lane id=":1822087214_0_0" index="0" allow="pedestrian delivery bicycle" speed="3.65" length="4.67" shape="3273.59,1219.49 3272.94,1218.21 3272.98,1217.31 3273.72,1216.81 3275.16,1216.70"/>
    </edge>
    <edge id=":1823077054_0" function="internal">
        <lane id=":1823077054_0_0" index="0" allow="pedestrian delivery bicycle" speed="5.11" length="5.07" shape="2959.95,1931.96 2958.62,1931.47 2957.46,1931.50 2956.47,1932.05 2955.63,1933.12"/>
    </edge>
    <edge id=":1823077054_1" function="internal">
        <lane id=":1823077054_1_0" index="0" allow="pedestrian delivery bicycle" speed="5.56" length="10.25" shape="2959.95,1931.96 2957.68,1930.29 2956.51,1928.30 2956.43,1925.99 2957.45,1923.37"/>
    </edge>
    <edge id=":1823077054_2" function="internal">
        <lane id=":1823077054_2_0" index="0" allow="pedestrian delivery bicycle" speed="3.65" length="4.67" shape="2959.95,1931.96 2959.27,1930.69 2959.30,1929.80 2960.03,1929.28 2961.46,1929.15"/>
    </edge>
    <edge id=":1823077054_3" function="internal">
        <lane id=":1823077054_3_0" index="0" allow="pedestrian delivery bicycle" speed="5.02" length="5.02" shape="2960.24,1924.93 2959.74,1926.22 2959.78,1927.35 2960.35,1928.33 2961.46,1929.15"/>
    </edge>
    <edge id=":1823077054_4" function="internal">
        <lane id=":1823077054_4_0" index="0" allow="pedestrian delivery bicycle" speed="5.56" length="9.40" shape="2960.24,1924.93 2955.63,1933.12"/>
    </edge>
    <edge id=":1823077054_5" function="internal">
        <lane id=":1823077054_5_0" index="0" allow="pedestrian delivery bicycle" speed="3.65" length="4.67" shape="2960.24,1924.93 2958.96,1925.59 2958.06,1925.55 2957.56,1924.81 2957.45,1923.37"/>
    </edge>
    <edge id=":1823077054_6" function="internal">
        <lane id=":1823077054_6_0" index="0" allow="pedestrian delivery bicycle" speed="5.56" length="9.38" shape="2952.84,1931.54 2957.45,1923.37"/>
    </edge>
    <edge id=":1823077054_7" function="internal">
        <lane id=":1823077054_7_0" index="0" allow="pedestrian delivery bicycle" speed="5.56" length="10.16" shape="2952.84,1931.54 2954.53,1929.37 2956.53,1928.25 2958.84,1928.17 2961.46,1929.15"/>
    </edge>
    <edge id=":1823077054_8" function="internal">
        <lane id=":1823077054_8_0" index="0" allow="pedestrian delivery bicycle" speed="3.65" length="4.67" shape="2952.84,1931.54 2954.13,1930.89 2955.02,1930.94 2955.52,1931.68 2955.63,1933.12"/>
    </edge>
    <edge id=":1823077086_0" function="internal">
        <lane id=":1823077086_0_0" index="0" allow="pedestrian delivery bicycle" speed="5.56" length="9.46" shape="3212.04,2000.21 3207.40,2008.46"/>
    </edge>
    <edge id=":1823077086_1" function="internal">
        <lane id=":1823077086_1_0" index="0" allow="pedestrian delivery bicycle" speed="5.56" length="10.19" shape="3212.04,2000.21 3210.36,2002.44 3208.36,2003.58 3206.06,2003.66 3203.44,2002.65"/>
    </edge>
    <edge id=":1823077086_2" function="internal">
        <lane id=":1823077086_2_0" index="0" allow="pedestrian delivery bicycle" speed="3.65" length="4.67" shape="3212.04,2000.21 3210.76,2000.88 3209.86,2000.84 3209.36,2000.10 3209.24,1998.66"/>
    </edge>
    <edge id=":1823077086_3" function="internal">
        <lane id=":1823077086_3_0" index="0" allow="pedestrian delivery bicycle" speed="5.05" length="5.03" shape="3204.99,1999.86 3206.29,2000.35 3207.43,2000.32 3208.41,1999.76 3209.24,1998.66"/>
    </edge>
    <edge id=":1823077086_4" function="internal">
        <lane id=":1823077086_4_0" index="0" allow="pedestrian delivery bicycle" speed="5.56" length="10.22" shape="3204.99,1999.86 3207.23,2001.55 3208.38,2003.55 3208.43,2005.85 3207.40,2008.46"/>
    </edge>
    <edge id=":1823077086_5" function="internal">
        <lane id=":1823077086_5_0" index="0" allow="pedestrian delivery bicycle" speed="3.65" length="4.67" shape="3204.99,1999.86 3205.66,2001.14 3205.62,2002.03 3204.88,2002.54 3203.44,2002.65"/>
    </edge>
    <edge id=":1823077086_6" function="internal">
        <lane id=":1823077086_6_0" index="0" allow="pedestrian delivery bicycle" speed="5.03" length="5.01" shape="3204.62,2006.88 3205.13,2005.60 3205.10,2004.47 3204.54,2003.49 3203.44,2002.65"/>
    </edge>
    <edge id=":1823077086_7" function="internal">
        <lane id=":1823077086_7_0" index="0" allow="pedestrian delivery bicycle" speed="5.56" length="9.42" shape="3204.62,2006.88 3209.24,1998.66"/>
    </edge>
    <edge id=":1823077086_8" function="internal">
        <lane id=":1823077086_8_0" index="0" allow="pedestrian delivery bicycle" speed="3.65" length="4.67" shape="3204.62,2006.88 3205.91,2006.23 3206.81,2006.28 3207.30,2007.02 3207.40,2008.46"/>
    </edge>
    <edge id=":1823077089_0" function="internal">
        <lane id=":1823077089_0_0" index="0" allow="pedestrian delivery bicycle" speed="4.52" length="6.01" shape="2588.29,1063.57 2593.40,1066.73"/>
        <lane id=":1823077089_0_1" index="1" allow="pedestrian delivery bicycle" speed="2.81" length="1.31" shape="2591.48,1063.35 2591.47,1063.69 2591.40,1064.00 2591.26,1064.28 2591.05,1064.55"/>
    </edge>
    <edge id=":1823077146_0" function="internal">
        <lane id=":1823077146_0_0" index="0" allow="pedestrian delivery bicycle" speed="3.65" length="4.67" shape="3005.38,1061.15 3006.66,1060.49 3007.55,1060.53 3008.06,1061.27 3008.17,1062.71"/>
    </edge>
    <edge id=":1823077182_0" function="internal">
        <lane id=":1823077182_0_0" index="0" allow="pedestrian delivery bicycle" speed="4.92" length="5.15" shape="3208.10,1491.30 3206.84,1490.63 3205.70,1490.55 3204.69,1491.09 3203.82,1492.23"/>
    </edge>
    <edge id=":1823077182_1" function="internal">
        <lane id=":1823077182_1_0" index="0" allow="pedestrian delivery bicycle" speed="5.56" length="10.29" shape="3208.10,1491.30 3205.98,1489.29 3204.89,1487.13 3204.83,1484.83 3205.82,1482.38"/>
    </edge>
    <edge id=":1823077182_2" function="internal">
        <lane id=":1823077182_2_0" index="0" allow="pedestrian delivery bicycle" speed="3.65" length="4.67" shape="3208.10,1491.30 3207.61,1489.94 3207.76,1489.06 3208.55,1488.65 3210.00,1488.72"/>
    </edge>
    <edge id=":1823077182_3" function="internal">
        <lane id=":1823077182_3_0" index="0" allow="pedestrian delivery bicycle" speed="5.40" length="5.47" shape="3208.57,1484.02 3208.09,1485.27 3208.17,1486.47 3208.80,1487.62 3210.00,1488.72"/>
    </edge>
    <edge id=":1823077182_4" function="internal">
        <lane id=":1823077182_4_0" index="0" allow="pedestrian delivery bicycle" speed="5.56" length="9.48" shape="3208.57,1484.02 3203.82,1492.23"/>
    </edge>
    <edge id=":1823077182_5" function="internal">
        <lane id=":1823077182_5_0" index="0" allow="pedestrian delivery bicycle" speed="3.65" length="4.67" shape="3208.57,1484.02 3207.27,1484.64 3206.37,1484.58 3205.89,1483.82 3205.82,1482.38"/>
    </edge>
    <edge id=":1823077182_6" function="internal">
        <lane id=":1823077182_6_0" index="0" allow="pedestrian delivery bicycle" speed="5.56" length="9.56" shape="3201.03,1490.66 3205.82,1482.38"/>
    </edge>
    <edge id=":1823077182_7" function="internal">
        <lane id=":1823077182_7_0" index="0" allow="pedestrian delivery bicycle" speed="5.56" length="10.77" shape="3201.03,1490.66 3202.86,1488.28 3204.97,1487.16 3207.34,1487.31 3210.00,1488.72"/>
    </edge>
    <edge id=":1823077182_8" function="internal">
        <lane id=":1823077182_8_0" index="0" allow="pedestrian delivery bicycle" speed="3.65" length="4.67" shape="3201.03,1490.66 3202.32,1490.00 3203.21,1490.05 3203.71,1490.79 3203.82,1492.23"/>
    </edge>
    <edge id=":184319357_0" function="internal">
        <lane id=":184319357_0_0" index="0" disallow="pedestrian tram rail_urban rail rail_electric rail_fast ship" speed="18.05" length="3.48" shape="3046.65,1516.64 3047.40,1515.93 3047.87,1515.40 3048.27,1514.81 3048.78,1513.92"/>
    </edge>
    <edge id=":184319357_1" function="internal">
        <lane id=":184319357_1_0" index="0" disallow="pedestrian tram rail_urban rail rail_electric rail_fast ship" speed="22.22" length="3.46" shape="3049.90,1518.52 3051.57,1515.48"/>
    </edge>
    <edge id=":1843387604_0" function="internal">
        <lane id=":1843387604_0_0" index="0" allow="pedestrian delivery bicycle" speed="5.56" length="9.40" shape="2675.43,1239.65 2670.80,1247.82"/>
    </edge>
    <edge id=":1843387604_1" function="internal">
        <lane id=":1843387604_1_0" index="0" allow="pedestrian delivery bicycle" speed="5.56" length="10.17" shape="2675.43,1239.65 2673.72,1241.85 2671.72,1242.98 2669.43,1243.03 2666.84,1242.01"/>
    </edge>
    <edge id=":1843387604_2" function="internal">
        <lane id=":1843387604_2_0" index="0" allow="pedestrian delivery bicycle" speed="3.65" length="4.67" shape="2675.43,1239.65 2674.14,1240.29 2673.25,1240.25 2672.75,1239.51 2672.65,1238.07"/>
    </edge>
    <edge id=":1843387604_3" function="internal">
        <lane id=":1843387604_3_0" index="0" allow="pedestrian delivery bicycle" speed="5.04" length="5.00" shape="2668.42,1239.23 2669.69,1239.73 2670.82,1239.71 2671.81,1239.15 2672.65,1238.07"/>
    </edge>
    <edge id=":1843387604_4" function="internal">
        <lane id=":1843387604_4_0" index="0" allow="pedestrian delivery bicycle" speed="5.56" length="10.16" shape="2668.42,1239.23 2670.62,1240.94 2671.75,1242.94 2671.81,1245.23 2670.80,1247.82"/>
    </edge>
    <edge id=":1843387604_5" function="internal">
        <lane id=":1843387604_5_0" index="0" allow="pedestrian delivery bicycle" speed="3.65" length="4.67" shape="2668.42,1239.23 2669.07,1240.52 2669.02,1241.41 2668.28,1241.91 2666.84,1242.01"/>
    </edge>
    <edge id=":1843387604_6" function="internal">
        <lane id=":1843387604_6_0" index="0" allow="pedestrian delivery bicycle" speed="5.05" length="5.00" shape="2668.01,1246.24 2668.51,1244.97 2668.48,1243.84 2667.92,1242.85 2666.84,1242.01"/>
    </edge>
    <edge id=":1843387604_7" function="internal">
        <lane id=":1843387604_7_0" index="0" allow="pedestrian delivery bicycle" speed="5.56" length="9.40" shape="2668.01,1246.24 2672.65,1238.07"/>
    </edge>
    <edge id=":1843387604_8" function="internal">
        <lane id=":1843387604_8_0" index="0" allow="pedestrian delivery bicycle" speed="3.65" length="4.67" shape="2668.01,1246.24 2669.30,1245.59 2670.19,1245.64 2670.69,1246.38 2670.80,1247.82"/>
    </edge>
    <edge id=":1843387616_0" function="internal">
        <lane id=":1843387616_0_0" index="0" allow="pedestrian delivery bicycle" speed="4.08" length="5.02" shape="2485.78,1256.77 2481.35,1254.41"/>
    </edge>
    <edge id=":1843387616_1" function="internal">
        <lane id=":1843387616_1_0" index="0" allow="pedestrian delivery bicycle" speed="5.56" length="3.98" shape="2482.69,1255.94 2482.37,1257.07 2482.08,1257.83 2481.71,1258.55 2481.12,1259.58"/>
    </edge>
    <edge id=":1843387616_2" function="internal">