<?xml version="1.0" encoding="UTF-8"?>
<!-- generated on 2022-01-31 16:16:23.327979 by $Id$ v1_9_2+0000-4206cfae24
  options: -n osm.net.xml <doubleminus>fringe-factor 1 -p 1.148872 -o osm.pedestrian.trips.xml -e 3600 -r osm.pedestrian.rou.xml <doubleminus>vehicle-class pedestrian <doubleminus>pedestrians <doubleminus>prefix ped <doubleminus>max-distance 2000
-->
<routes xmlns:xsi="http://www.w3.org/2001/XMLSchema-instance" xsi:noNamespaceSchemaLocation="http://sumo.dlr.de/xsd/routes_file.xsd">
    <vType id="ped_pedestrian" vClass="pedestrian"/>
    <person id="ped0" depart="0.00" type="ped_pedestrian">
        <walk from="617798471#2" to="617795859#3"/>
    </person>
    <person id="ped1" depart="1.15" type="ped_pedestrian">
        <walk from="691970091" to="-42747637#5"/>
    </person>
    <person id="ped2" depart="2.30" type="ped_pedestrian">
        <walk from="-5171172#3" to="500616632#0"/>
    </person>
    <person id="ped3" depart="3.45" type="ped_pedestrian">
        <walk from="677923183#0" to="-170853048#3"/>
    </person>
    <person id="ped4" depart="4.60" type="ped_pedestrian">
        <walk from="677913887" to="617795878#3"/>
    </person>
    <person id="ped5" depart="5.74" type="ped_pedestrian">
        <walk from="173542067#1" to="-500616593#7"/>
    </person>
    <person id="ped6" depart="6.89" type="ped_pedestrian">
        <walk from="860333741#1" to="171299949#0"/>
    </person>
    <person id="ped7" depart="8.04" type="ped_pedestrian">
        <walk from="-42747696#1" to="-42747700#3"/>
    </person>
    <person id="ped8" depart="9.19" type="ped_pedestrian">
        <walk from="500616586#2" to="881620223"/>
    </person>
    <person id="ped9" depart="10.34" type="ped_pedestrian">
        <walk from="262946969#6" to="500616594#1"/>
    </person>
    <person id="ped10" depart="11.49" type="ped_pedestrian">
        <walk from="617795883#0" to="-173544357"/>
    </person>
    <person id="ped11" depart="12.64" type="ped_pedestrian">
        <walk from="-42750923#5" to="-884247586"/>
    </person>
    <person id="ped12" depart="13.79" type="ped_pedestrian">
        <walk from="590396282#2" to="250506420#1"/>
    </person>
    <person id="ped13" depart="14.94" type="ped_pedestrian">
        <walk from="-881620218" to="828700334#0"/>
    </person>
    <person id="ped14" depart="16.08" type="ped_pedestrian">
        <walk from="609839247#7" to="5171147#0"/>
    </person>
    <person id="ped15" depart="17.23" type="ped_pedestrian">
        <walk from="-500616600#0" to="617798464#8"/>
    </person>
    <person id="ped16" depart="18.38" type="ped_pedestrian">
        <walk from="-500616595#3" to="262946987#1"/>
    </person>
    <person id="ped17" depart="19.53" type="ped_pedestrian">
        <walk from="887526440#1" to="609839245"/>
    </person>
    <person id="ped18" depart="20.68" type="ped_pedestrian">
        <walk from="500616595#3" to="617795866#3"/>
    </person>
    <person id="ped19" depart="21.83" type="ped_pedestrian">
        <walk from="-669737709#0" to="-171273554#3"/>
    </person>
    <person id="ped20" depart="22.98" type="ped_pedestrian">
        <walk from="171143819" to="-881620219"/>
    </person>
    <person id="ped21" depart="24.13" type="ped_pedestrian">
        <walk from="678761498" to="171140397"/>
    </person>
    <person id="ped22" depart="25.28" type="ped_pedestrian">
        <walk from="617795840" to="322744963#1"/>
    </person>
    <person id="ped23" depart="26.42" type="ped_pedestrian">
        <walk from="500616628#6" to="783190965#0"/>
    </person>
    <person id="ped24" depart="27.57" type="ped_pedestrian">
        <walk from="908541925#1" to="500616526#0"/>
    </person>
    <person id="ped25" depart="28.72" type="ped_pedestrian">
        <walk from="-42747695#0" to="-173544358#1"/>
    </person>
    <person id="ped26" depart="29.87" type="ped_pedestrian">
        <walk from="677425160" to="322878939#9"/>
    </person>
    <person id="ped27" depart="31.02" type="ped_pedestrian">
        <walk from="908533354#1" to="500616579#0"/>
    </person>
    <person id="ped28" depart="32.17" type="ped_pedestrian">
        <walk from="-171128424#0" to="617797129"/>
    </person>
    <person id="ped29" depart="33.32" type="ped_pedestrian">
        <walk from="617795865#1" to="500616588#0"/>
    </person>
    <person id="ped30" depart="34.47" type="ped_pedestrian">
        <walk from="-881620218" to="609839246#1"/>
    </person>
    <person id="ped31" depart="35.62" type="ped_pedestrian">
        <walk from="-500616523#0" to="340606261#1"/>
    </person>
    <person id="ped32" depart="36.76" type="ped_pedestrian">
        <walk from="678698625#1" to="-880274721#0"/>
    </person>
    <person id="ped33" depart="37.91" type="ped_pedestrian">
        <walk from="5171147#0" to="-500616593#3"/>
    </person>
    <person id="ped34" depart="39.06" type="ped_pedestrian">
        <walk from="617802357#2" to="500616590#1"/>
    </person>
    <person id="ped35" depart="40.21" type="ped_pedestrian">
        <walk from="669737709#1" to="500616579#2"/>
    </person>
    <person id="ped36" depart="41.36" type="ped_pedestrian">
        <walk from="-155218281" to="171273553#0"/>
    </person>
    <person id="ped37" depart="42.51" type="ped_pedestrian">
        <walk from="-171140397" to="82592233#0"/>
    </person>
    <person id="ped38" depart="43.66" type="ped_pedestrian">
        <walk from="679469292#1" to="677988349#3"/>
    </person>
    <person id="ped39" depart="44.81" type="ped_pedestrian">
        <walk from="679469292#0" to="849265779#1"/>
    </person>
    <person id="ped40" depart="45.95" type="ped_pedestrian">
        <walk from="-42747637#3" to="42751321#1"/>
    </person>
    <person id="ped41" depart="47.10" type="ped_pedestrian">
        <walk from="-322819174" to="617802355#1"/>
    </person>
    <person id="ped42" depart="48.25" type="ped_pedestrian">
        <walk from="42748096" to="500616593#7"/>
    </person>
    <person id="ped43" depart="49.40" type="ped_pedestrian">
        <walk from="-881608060" to="678697945#2"/>
    </person>
    <person id="ped44" depart="50.55" type="ped_pedestrian">
        <walk from="322878940#0" to="-5171133#4"/>
    </person>
    <person id="ped45" depart="51.70" type="ped_pedestrian">
        <walk from="500616590#1" to="617798464#9"/>
    </person>
    <person id="ped46" depart="52.85" type="ped_pedestrian">
        <walk from="-500616644#2" to="171135937#1"/>
    </person>
    <person id="ped47" depart="54.00" type="ped_pedestrian">
        <walk from="340606265" to="500616550"/>
    </person>
    <person id="ped48" depart="55.15" type="ped_pedestrian">
        <walk from="171299950" to="500616630#2"/>
    </person>
    <person id="ped49" depart="56.29" type="ped_pedestrian">
        <walk from="-322878928#3" to="535068836"/>
    </person>
    <person id="ped50" depart="57.44" type="ped_pedestrian">
        <walk from="-669737709#0" to="820461465"/>
    </person>
    <person id="ped51" depart="58.59" type="ped_pedestrian">
        <walk from="678235607" to="-322878928#2"/>
    </person>
    <person id="ped52" depart="59.74" type="ped_pedestrian">
        <walk from="-677424372" to="617795853#2"/>
    </person>
    <person id="ped53" depart="60.89" type="ped_pedestrian">
        <walk from="-5171155#2" to="-500616566#3"/>
    </person>
    <person id="ped54" depart="62.04" type="ped_pedestrian">
        <walk from="828700333" to="500616621#2"/>
    </person>
    <person id="ped55" depart="63.19" type="ped_pedestrian">
        <walk from="42747955#1" to="677423247#1"/>
    </person>
    <person id="ped56" depart="64.34" type="ped_pedestrian">
        <walk from="-42747700#3" to="322878949#1"/>
    </person>
    <person id="ped57" depart="65.49" type="ped_pedestrian">
        <walk from="617798464#8" to="617795857"/>
    </person>
    <person id="ped58" depart="66.63" type="ped_pedestrian">
        <walk from="882785080" to="-42750923#1"/>
    </person>
    <person id="ped59" depart="67.78" type="ped_pedestrian">
        <walk from="322878939#8" to="-908533355#0"/>
    </person>
    <person id="ped60" depart="68.93" type="ped_pedestrian">
        <walk from="340606273" to="678398325"/>
    </person>
    <person id="ped61" depart="70.08" type="ped_pedestrian">
        <walk from="500616593#8" to="-173544816#0"/>
    </person>
    <person id="ped62" depart="71.23" type="ped_pedestrian">
        <walk from="881608063" to="82592221#2"/>
    </person>
    <person id="ped63" depart="72.38" type="ped_pedestrian">
        <walk from="678233694" to="-500616596#3"/>
    </person>
    <person id="ped64" depart="73.53" type="ped_pedestrian">
        <walk from="-881608060" to="677423246"/>
    </person>
    <person id="ped65" depart="74.68" type="ped_pedestrian">
        <walk from="860333741#1" to="908533354#0"/>
    </person>
    <person id="ped66" depart="75.83" type="ped_pedestrian">
        <walk from="881608063" to="500616623#9"/>
    </person>
    <person id="ped67" depart="76.97" type="ped_pedestrian">
        <walk from="500616522#1" to="678233703"/>
    </person>
    <person id="ped68" depart="78.12" type="ped_pedestrian">
        <walk from="-500616594#0" to="860333741#6"/>
    </person>
    <person id="ped69" depart="79.27" type="ped_pedestrian">
        <walk from="500616644#2" to="617795859#1"/>
    </person>
    <person id="ped70" depart="80.42" type="ped_pedestrian">
        <walk from="-677423245" to="-500616527#2"/>
    </person>
    <person id="ped71" depart="81.57" type="ped_pedestrian">
        <walk from="-5171116#10" to="617795903"/>
    </person>
    <person id="ped72" depart="82.72" type="ped_pedestrian">
        <walk from="-677424657" to="322744965#0"/>
    </person>
    <person id="ped73" depart="83.87" type="ped_pedestrian">
        <walk from="617795854#1" to="170853048#3"/>
    </person>
    <person id="ped74" depart="85.02" type="ped_pedestrian">
        <walk from="-322878930" to="42747694#0"/>
    </person>
    <person id="ped75" depart="86.17" type="ped_pedestrian">
        <walk from="-322878932" to="-5171155#0"/>
    </person>
    <person id="ped76" depart="87.31" type="ped_pedestrian">
        <walk from="-881608060" to="82592243#0"/>
    </person>
    <person id="ped77" depart="88.46" type="ped_pedestrian">
        <walk from="687868369#0" to="679469294#0"/>
    </person>
    <person id="ped78" depart="89.61" type="ped_pedestrian">
        <walk from="677988349#6" to="617795882#1"/>
    </person>
    <person id="ped79" depart="90.76" type="ped_pedestrian">
        <walk from="617795837" to="-171128421#1"/>
    </person>
    <person id="ped80" depart="91.91" type="ped_pedestrian">
        <walk from="677960794#1" to="170853048#2"/>
    </person>
    <person id="ped81" depart="93.06" type="ped_pedestrian">
        <walk from="617795848#2" to="828700337"/>
    </person>
    <person id="ped82" depart="94.21" type="ped_pedestrian">
        <walk from="-500616574#1" to="-500616525#0"/>
    </person>
    <person id="ped83" depart="95.36" type="ped_pedestrian">
        <walk from="535068843#0" to="-880274721#1"/>
    </person>
    <person id="ped84" depart="96.51" type="ped_pedestrian">
        <walk from="42751509#1" to="820461462"/>
    </person>
    <person id="ped85" depart="97.65" type="ped_pedestrian">
        <walk from="-170848626#1" to="617802364#4"/>
    </person>
    <person id="ped86" depart="98.80" type="ped_pedestrian">
        <walk from="-322878937#0" to="687869026#1"/>
    </person>
    <person id="ped87" depart="99.95" type="ped_pedestrian">
        <walk from="171135927#0" to="783190966"/>
    </person>
    <person id="ped88" depart="101.10" type="ped_pedestrian">
        <walk from="677428370#1" to="678235610"/>
    </person>
    <person id="ped89" depart="102.25" type="ped_pedestrian">
        <walk from="669737709#4" to="687869027"/>
    </person>
    <person id="ped90" depart="103.40" type="ped_pedestrian">
        <walk from="-500616593#5" to="82592233#1"/>
    </person>
    <person id="ped91" depart="104.55" type="ped_pedestrian">
        <walk from="678403800" to="881624922#2"/>
    </person>
    <person id="ped92" depart="105.70" type="ped_pedestrian">
        <walk from="677923184#1" to="687868369#1"/>
    </person>
    <person id="ped93" depart="106.85" type="ped_pedestrian">
        <walk from="-171245016#0" to="617798471#2"/>
    </person>
    <person id="ped94" depart="107.99" type="ped_pedestrian">
        <walk from="677913883" to="678400306"/>
    </person>
    <person id="ped95" depart="109.14" type="ped_pedestrian">
        <walk from="677923184#1" to="-881620218"/>
    </person>
    <person id="ped96" depart="110.29" type="ped_pedestrian">
        <walk from="678697945#2" to="678234116"/>
    </person>
    <person id="ped97" depart="111.44" type="ped_pedestrian">
        <walk from="-171245015#1" to="-500616630#0"/>
    </person>
    <person id="ped98" depart="112.59" type="ped_pedestrian">
        <walk from="881608059" to="-908541925#0"/>
    </person>
    <person id="ped99" depart="113.74" type="ped_pedestrian">
        <walk from="882785076#3" to="500616586#2"/>
    </person>
    <person id="ped100" depart="114.89" type="ped_pedestrian">
        <walk from="828700337" to="-500616525#0"/>
    </person>
    <person id="ped101" depart="116.04" type="ped_pedestrian">
        <walk from="875753969#1" to="-881608061"/>
    </person>
    <person id="ped102" depart="117.18" type="ped_pedestrian">
        <walk from="5171133#2" to="500616527#1"/>
    </person>
    <person id="ped103" depart="118.33" type="ped_pedestrian">
        <walk from="301016680#0" to="500616623#5"/>
    </person>
    <person id="ped104" depart="119.48" type="ped_pedestrian">
        <walk from="-82592231#1" to="617795886#1"/>
    </person>
    <person id="ped105" depart="120.63" type="ped_pedestrian">
        <walk from="500616590#0" to="617795906#3"/>
    </person>
    <person id="ped106" depart="121.78" type="ped_pedestrian">
        <walk from="617798474" to="617795853#4"/>
    </person>
    <person id="ped107" depart="122.93" type="ped_pedestrian">
        <walk from="250506419#1" to="-322878928#1"/>
    </person>
    <person id="ped108" depart="124.08" type="ped_pedestrian">
        <walk from="617795849" to="171299761#1"/>
    </person>
    <person id="ped109" depart="125.23" type="ped_pedestrian">
        <walk from="171140396#2" to="678233693"/>
    </person>
    <person id="ped110" depart="126.38" type="ped_pedestrian">
        <walk from="617795906#3" to="170853048#3"/>
    </person>
    <person id="ped111" depart="127.52" type="ped_pedestrian">
        <walk from="171135927#1" to="322878927#2"/>
    </person>
    <person id="ped112" depart="128.67" type="ped_pedestrian">
        <walk from="849265770#1" to="617795859#4"/>
    </person>
    <person id="ped113" depart="129.82" type="ped_pedestrian">
        <walk from="820195885" to="5171163#3"/>
    </person>
    <person id="ped114" depart="130.97" type="ped_pedestrian">
        <walk from="617795838#1" to="42747699#1"/>
    </person>
    <person id="ped115" depart="132.12" type="ped_pedestrian">
        <walk from="42747956" to="820195883#2"/>
    </person>
    <person id="ped116" depart="133.27" type="ped_pedestrian">
        <walk from="677960796#0" to="617802348#1"/>
    </person>
    <person id="ped117" depart="134.42" type="ped_pedestrian">
        <walk from="-783190965#1" to="42748096"/>
    </person>
    <person id="ped118" depart="135.57" type="ped_pedestrian">
        <walk from="678233695" to="-322878930"/>
    </person>
    <person id="ped119" depart="136.72" type="ped_pedestrian">
        <walk from="322878935" to="535068834#0"/>
    </person>
    <person id="ped120" depart="137.86" type="ped_pedestrian">
        <walk from="-500616630#2" to="617795878#1"/>
    </person>
    <person id="ped121" depart="139.01" type="ped_pedestrian">
        <walk from="617795841" to="-170853048#1"/>
    </person>
    <person id="ped122" depart="140.16" type="ped_pedestrian">
        <walk from="617802348#1" to="617802364#2"/>
    </person>
    <person id="ped123" depart="141.31" type="ped_pedestrian">
        <walk from="500616552" to="-173544814"/>
    </person>
    <person id="ped124" depart="142.46" type="ped_pedestrian">
        <walk from="617795853#0" to="887523754"/>
    </person>
    <person id="ped125" depart="143.61" type="ped_pedestrian">
        <walk from="500718589" to="849265784"/>
    </person>
    <person id="ped126" depart="144.76" type="ped_pedestrian">
        <walk from="617795906#2" to="500616523#2"/>
    </person>
    <person id="ped127" depart="145.91" type="ped_pedestrian">
        <walk from="677988349#2" to="500616593#4"/>
    </person>
    <person id="ped128" depart="147.06" type="ped_pedestrian">
        <walk from="783190964#1" to="617802338#0"/>
    </person>
    <person id="ped129" depart="148.20" type="ped_pedestrian">
        <walk from="42748061#1" to="-82592243#0"/>
    </person>
    <person id="ped130" depart="149.35" type="ped_pedestrian">
        <walk from="-820195887#0" to="609839238"/>
    </person>
    <person id="ped131" depart="150.50" type="ped_pedestrian">
        <walk from="-322878944#0" to="155218283#1"/>
    </person>
    <person id="ped132" depart="151.65" type="ped_pedestrian">
        <walk from="-881974254" to="171245016#0"/>
    </person>
    <person id="ped133" depart="152.80" type="ped_pedestrian">
        <walk from="500616590#2" to="-500616581#0"/>
    </person>
    <person id="ped134" depart="153.95" type="ped_pedestrian">
        <walk from="-669737709#3" to="617795873#4"/>
    </person>
    <person id="ped135" depart="155.10" type="ped_pedestrian">
        <walk from="322878927#1" to="500616592#2"/>
    </person>
    <person id="ped136" depart="156.25" type="ped_pedestrian">
        <walk from="322878939#6" to="820461462"/>
    </person>
    <person id="ped137" depart="157.40" type="ped_pedestrian">
        <walk from="500616628#5" to="617795876#2"/>
    </person>
    <person id="ped138" depart="158.54" type="ped_pedestrian">
        <walk from="262947136" to="-170853048#2"/>
    </person>
    <person id="ped139" depart="159.69" type="ped_pedestrian">
        <walk from="678233704" to="860333737#0"/>
    </person>
    <person id="ped140" depart="160.84" type="ped_pedestrian">
        <walk from="322878939#4" to="617802342"/>
    </person>
    <person id="ped141" depart="161.99" type="ped_pedestrian">
        <walk from="500616593#2" to="5171116#7"/>
    </person>
    <person id="ped142" depart="163.14" type="ped_pedestrian">
        <walk from="-5171172#3" to="-5171172#2"/>
    </person>
    <person id="ped143" depart="164.29" type="ped_pedestrian">
        <walk from="340606261#3" to="-171273553#1"/>
    </person>
    <person id="ped144" depart="165.44" type="ped_pedestrian">
        <walk from="171299900#2" to="617795863"/>
    </person>
    <person id="ped145" depart="166.59" type="ped_pedestrian">
        <walk from="322815290#0" to="-500616596#1"/>
    </person>
    <person id="ped146" depart="167.74" type="ped_pedestrian">
        <walk from="-173544814" to="262946969#6"/>
    </person>
    <person id="ped147" depart="168.88" type="ped_pedestrian">
        <walk from="617802357#0" to="262946969#6"/>
    </person>
    <person id="ped148" depart="170.03" type="ped_pedestrian">
        <walk from="617802349#0" to="677988349#4"/>
    </person>
    <person id="ped149" depart="171.18" type="ped_pedestrian">
        <walk from="-171140397" to="500616590#1"/>
    </person>
    <person id="ped150" depart="172.33" type="ped_pedestrian">
        <walk from="849265784" to="-500616639#2"/>
    </person>
    <person id="ped151" depart="173.48" type="ped_pedestrian">
        <walk from="-171143819" to="-500616593#2"/>
    </person>
    <person id="ped152" depart="174.63" type="ped_pedestrian">
        <walk from="-500616554" to="617795853#3"/>
    </person>
    <person id="ped153" depart="175.78" type="ped_pedestrian">
        <walk from="617795879" to="617802361#0"/>
    </person>
    <person id="ped154" depart="176.93" type="ped_pedestrian">
        <walk from="-500616596#5" to="5171133#3"/>
    </person>
    <person id="ped155" depart="178.08" type="ped_pedestrian">
        <walk from="617802342" to="-500616524#2"/>
    </person>
    <person id="ped156" depart="179.22" type="ped_pedestrian">
        <walk from="677960796#1" to="880274720#1"/>
    </person>
    <person id="ped157" depart="180.37" type="ped_pedestrian">
        <walk from="171135937#1" to="617795859#4"/>
    </person>
    <person id="ped158" depart="181.52" type="ped_pedestrian">
        <walk from="860333741#2" to="322744965#1"/>
    </person>
    <person id="ped159" depart="182.67" type="ped_pedestrian">
        <walk from="617795900" to="-322878937#1"/>
    </person>
    <person id="ped160" depart="183.82" type="ped_pedestrian">
        <walk from="617795871" to="535068831"/>
    </person>
    <person id="ped161" depart="184.97" type="ped_pedestrian">
        <walk from="-500616529#1" to="882785079"/>
    </person>
    <person id="ped162" depart="186.12" type="ped_pedestrian">
        <walk from="677423231#1" to="173544814"/>
    </person>
    <person id="ped163" depart="187.27" type="ped_pedestrian">
        <walk from="322878946#1" to="250506429#2"/>
    </person>
    <person id="ped164" depart="188.42" type="ped_pedestrian">
        <walk from="500616524#1" to="173542068"/>
    </person>
    <person id="ped165" depart="189.56" type="ped_pedestrian">
        <walk from="678233695" to="677988317"/>
    </person>
    <person id="ped166" depart="190.71" type="ped_pedestrian">
        <walk from="617795885#1" to="340606261#3"/>
    </person>
    <person id="ped167" depart="191.86" type="ped_pedestrian">
        <walk from="617798470#1" to="880274721#0"/>
    </person>
    <person id="ped168" depart="193.01" type="ped_pedestrian">
        <walk from="500616588#2" to="42750923#5"/>
    </person>
    <person id="ped169" depart="194.16" type="ped_pedestrian">
        <walk from="340606261#3" to="617798468#0"/>
    </person>
    <person id="ped170" depart="195.31" type="ped_pedestrian">
        <walk from="-881620220" to="678233701"/>
    </person>
    <person id="ped171" depart="196.46" type="ped_pedestrian">
        <walk from="687868369#1" to="-783190965#0"/>
    </person>
    <person id="ped172" depart="197.61" type="ped_pedestrian">
        <walk from="173542067#1" to="679469294#1"/>
    </person>
    <person id="ped173" depart="198.75" type="ped_pedestrian">
        <walk from="617795881#1" to="-884247584#1"/>
    </person>
    <person id="ped174" depart="199.90" type="ped_pedestrian">
        <walk from="-171128421#4" to="849265781"/>
    </person>
    <person id="ped175" depart="201.05" type="ped_pedestrian">
        <walk from="-42747637#3" to="617797128"/>
    </person>
    <person id="ped176" depart="202.20" type="ped_pedestrian">
        <walk from="617795872" to="171128424#0"/>
    </person>
    <person id="ped177" depart="203.35" type="ped_pedestrian">
        <walk from="500616628#1" to="42747956"/>
    </person>
    <person id="ped178" depart="204.50" type="ped_pedestrian">
        <walk from="500616579#3" to="322878944#0"/>
    </person>
    <person id="ped179" depart="205.65" type="ped_pedestrian">
        <walk from="617795881#4" to="-881974253"/>
    </person>
    <person id="ped180" depart="206.80" type="ped_pedestrian">
        <walk from="500616586#2" to="617802357#2"/>
    </person>
    <person id="ped181" depart="207.95" type="ped_pedestrian">
        <walk from="-500616623#9" to="-5171163#2"/>
    </person>
    <person id="ped182" depart="209.09" type="ped_pedestrian">
        <walk from="42751315#1" to="617798464#1"/>
    </person>
    <person id="ped183" depart="210.24" type="ped_pedestrian">
        <walk from="881624922#4" to="500616566#3"/>
    </person>
    <person id="ped184" depart="211.39" type="ped_pedestrian">
        <walk from="155218281" to="-42750923#5"/>
    </person>
    <person id="ped185" depart="212.54" type="ped_pedestrian">
        <walk from="-500616630#1" to="-590396282#2"/>
    </person>
    <person id="ped186" depart="213.69" type="ped_pedestrian">
        <walk from="-500616623#10" to="-171135927#0"/>
    </person>
    <person id="ped187" depart="214.84" type="ped_pedestrian">
        <walk from="500616584#2" to="-883804708"/>
    </person>
    <person id="ped188" depart="215.99" type="ped_pedestrian">
        <walk from="881624921" to="500616594#3"/>
    </person>
    <person id="ped189" depart="217.14" type="ped_pedestrian">
        <walk from="617795878#2" to="-500616554"/>
    </person>
    <person id="ped190" depart="218.29" type="ped_pedestrian">
        <walk from="42747911#0" to="340606267#1"/>
    </person>
    <person id="ped191" depart="219.43" type="ped_pedestrian">
        <walk from="-500616623#8" to="-173544816#1"/>
    </person>
    <person id="ped192" depart="220.58" type="ped_pedestrian">
        <walk from="849265771" to="42748184"/>
    </person>
    <person id="ped193" depart="221.73" type="ped_pedestrian">
        <walk from="677988314" to="322744972#2"/>
    </person>
    <person id="ped194" depart="222.88" type="ped_pedestrian">
        <walk from="-220275668" to="-500616593#0"/>
    </person>
    <person id="ped195" depart="224.03" type="ped_pedestrian">
        <walk from="500616598#1" to="171128421#3"/>
    </person>
    <person id="ped196" depart="225.18" type="ped_pedestrian">
        <walk from="904885028#1" to="-500616527#0"/>
    </person>
    <person id="ped197" depart="226.33" type="ped_pedestrian">
        <walk from="677424657" to="-535068843#0"/>
    </person>
    <person id="ped198" depart="227.48" type="ped_pedestrian">
        <walk from="340606271" to="678235608"/>
    </person>
    <person id="ped199" depart="228.63" type="ped_pedestrian">
        <walk from="887526441" to="171128421#5"/>
    </person>
    <person id="ped200" depart="229.77" type="ped_pedestrian">
        <walk from="5171172#8" to="5171147#3"/>
    </person>
    <person id="ped201" depart="230.92" type="ped_pedestrian">
        <walk from="617798472#4" to="849265781"/>
    </person>
    <person id="ped202" depart="232.07" type="ped_pedestrian">
        <walk from="-5171116#7" to="-5171133#3"/>
    </person>
    <person id="ped203" depart="233.22" type="ped_pedestrian">
        <walk from="617795846#0" to="-500616593#9"/>
    </person>
    <person id="ped204" depart="234.37" type="ped_pedestrian">
        <walk from="-170848626#0" to="42747637#1"/>
    </person>
    <person id="ped205" depart="235.52" type="ped_pedestrian">
        <walk from="-669737709#4" to="617795884#2"/>
    </person>
    <person id="ped206" depart="236.67" type="ped_pedestrian">
        <walk from="617795881#4" to="42747637#7"/>
    </person>
    <person id="ped207" depart="237.82" type="ped_pedestrian">
        <walk from="617795869#2" to="82592216"/>
    </person>
    <person id="ped208" depart="238.97" type="ped_pedestrian">
        <walk from="617795846#2" to="82592243#1"/>
    </person>
    <person id="ped209" depart="240.11" type="ped_pedestrian">
        <walk from="322878943" to="500616593#10"/>
    </person>
    <person id="ped210" depart="241.26" type="ped_pedestrian">
        <walk from="677988332" to="-322878928#3"/>
    </person>
    <person id="ped211" depart="242.41" type="ped_pedestrian">
        <walk from="164138226#3" to="-500616529#6"/>
    </person>
    <person id="ped212" depart="243.56" type="ped_pedestrian">
        <walk from="617795869#4" to="617795880"/>
    </person>
    <person id="ped213" depart="244.71" type="ped_pedestrian">
        <walk from="45658370" to="-412951393#0"/>
    </person>
    <person id="ped214" depart="245.86" type="ped_pedestrian">
        <walk from="171273550" to="-820461468"/>
    </person>
    <person id="ped215" depart="247.01" type="ped_pedestrian">
        <walk from="-42747695#0" to="875753969#0"/>
    </person>
    <person id="ped216" depart="248.16" type="ped_pedestrian">
        <walk from="860333736#1" to="964816689"/>
    </person>
    <person id="ped217" depart="249.31" type="ped_pedestrian">
        <walk from="617795855#0" to="-881620223"/>
    </person>
    <person id="ped218" depart="250.45" type="ped_pedestrian">
        <walk from="-171299900#0" to="617802349#6"/>
    </person>
    <person id="ped219" depart="251.60" type="ped_pedestrian">
        <walk from="42751509#6" to="-42747695#0"/>
    </person>
    <person id="ped220" depart="252.75" type="ped_pedestrian">
        <walk from="193177392" to="171299762"/>
    </person>
    <person id="ped221" depart="253.90" type="ped_pedestrian">
        <walk from="617795853#4" to="678233707"/>
    </person>
    <person id="ped222" depart="255.05" type="ped_pedestrian">
        <walk from="171273555" to="617795873#3"/>
    </person>
    <person id="ped223" depart="256.20" type="ped_pedestrian">
        <walk from="677923189" to="500616593#8"/>
    </person>
    <person id="ped224" depart="257.35" type="ped_pedestrian">
        <walk from="171273551" to="881620219"/>
    </person>
    <person id="ped225" depart="258.50" type="ped_pedestrian">
        <walk from="322815290#0" to="500616529#4"/>
    </person>