<?xml version="1.0" encoding="UTF-8"?>

<!-- generated on 2022-11-10 10:56:06 by Eclipse SUMO netconvert Version 1.11.0
<configuration xmlns:xsi="http://www.w3.org/2001/XMLSchema-instance" xsi:noNamespaceSchemaLocation="http://sumo.dlr.de/xsd/netconvertConfiguration.xsd">

    <input>
        <osm-files value="map.osm"/>
    </input>

    <output>
        <output-file value="map.net.xml"/>
    </output>

    <projection>
        <proj.utm value="true"/>
    </projection>

    <report>
        <aggregate-warnings value="5"/>
    </report>

</configuration>
-->

<net version="1.9" junctionCornerDetail="5" limitTurnSpeed="5.50" xmlns:xsi="http://www.w3.org/2001/XMLSchema-instance" xsi:noNamespaceSchemaLocation="http://sumo.dlr.de/xsd/net_file.xsd">

    <location netOffset="-387073.32,-3931032.58" convBoundary="0.00,0.00,4939.44,6386.11" origBoundary="139.638763,35.458013,139.837700,35.630374" projParameter="+proj=utm +zone=54 +ellps=WGS84 +datum=WGS84 +units=m +no_defs"/>

    <type id="highway.bridleway" priority="1" numLanes="1" speed="2.78" allow="pedestrian" oneway="1" width="2.00"/>
    <type id="highway.bus_guideway" priority="1" numLanes="1" speed="27.78" allow="bus" oneway="1"/>
    <type id="highway.cycleway" priority="1" numLanes="1" speed="8.33" allow="bicycle" oneway="0" width="1.00"/>
    <type id="highway.footway" priority="1" numLanes="1" speed="2.78" allow="pedestrian" oneway="1" width="2.00"/>
    <type id="highway.ford" priority="1" numLanes="1" speed="2.78" allow="army" oneway="0"/>
    <type id="highway.living_street" priority="2" numLanes="1" speed="2.78" disallow="tram rail_urban rail rail_electric rail_fast ship" oneway="0"/>
    <type id="highway.motorway" priority="14" numLanes="2" speed="39.44" allow="private emergency authority army vip passenger hov taxi bus coach delivery truck trailer motorcycle evehicle custom1 custom2" oneway="1"/>
    <type id="highway.motorway_link" priority="9" numLanes="1" speed="22.22" allow="private emergency authority army vip passenger hov taxi bus coach delivery truck trailer motorcycle evehicle custom1 custom2" oneway="1"/>
    <type id="highway.path" priority="1" numLanes="1" speed="2.78" allow="pedestrian bicycle" oneway="0" width="2.00"/>
    <type id="highway.pedestrian" priority="1" numLanes="1" speed="2.78" allow="pedestrian" oneway="1" width="2.00"/>
    <type id="highway.primary" priority="12" numLanes="2" speed="27.78" disallow="tram rail_urban rail rail_electric rail_fast ship" oneway="0"/>
    <type id="highway.primary_link" priority="7" numLanes="1" speed="22.22" disallow="tram rail_urban rail rail_electric rail_fast ship" oneway="0"/>
    <type id="highway.raceway" priority="15" numLanes="2" speed="83.33" allow="vip" oneway="0"/>
    <type id="highway.residential" priority="3" numLanes="1" speed="13.89" disallow="tram rail_urban rail rail_electric rail_fast ship" oneway="0"/>
    <type id="highway.secondary" priority="11" numLanes="1" speed="27.78" disallow="tram rail_urban rail rail_electric rail_fast ship" oneway="0"/>
    <type id="highway.secondary_link" priority="6" numLanes="1" speed="22.22" disallow="tram rail_urban rail rail_electric rail_fast ship" oneway="0"/>
    <type id="highway.service" priority="1" numLanes="1" speed="5.56" allow="pedestrian delivery bicycle" oneway="0"/>
    <type id="highway.stairs" priority="1" numLanes="1" speed="1.39" allow="pedestrian" oneway="1" width="2.00"/>
    <type id="highway.step" priority="1" numLanes="1" speed="1.39" allow="pedestrian" oneway="1" width="2.00"/>
    <type id="highway.steps" priority="1" numLanes="1" speed="1.39" allow="pedestrian" oneway="1" width="2.00"/>
    <type id="highway.tertiary" priority="10" numLanes="1" speed="22.22" disallow="tram rail_urban rail rail_electric rail_fast ship" oneway="0"/>
    <type id="highway.tertiary_link" priority="5" numLanes="1" speed="22.22" disallow="tram rail_urban rail rail_electric rail_fast ship" oneway="0"/>
    <type id="highway.track" priority="1" numLanes="1" speed="5.56" allow="pedestrian motorcycle moped bicycle" oneway="0"/>
    <type id="highway.trunk" priority="13" numLanes="2" speed="27.78" disallow="pedestrian bicycle tram rail_urban rail rail_electric rail_fast ship" oneway="0"/>
    <type id="highway.trunk_link" priority="8" numLanes="1" speed="22.22" disallow="pedestrian bicycle tram rail_urban rail rail_electric rail_fast ship" oneway="0"/>
    <type id="highway.unclassified" priority="4" numLanes="1" speed="13.89" disallow="tram rail_urban rail rail_electric rail_fast ship" oneway="0"/>
    <type id="highway.unsurfaced" priority="1" numLanes="1" speed="8.33" disallow="tram rail_urban rail rail_electric rail_fast ship" oneway="0"/>
    <type id="railway.highspeed" priority="21" numLanes="1" speed="69.44" allow="rail_fast" oneway="1"/>
    <type id="railway.light_rail" priority="19" numLanes="1" speed="27.78" allow="rail_urban" oneway="1"/>
    <type id="railway.preserved" priority="16" numLanes="1" speed="27.78" allow="rail" oneway="1"/>
    <type id="railway.rail" priority="20" numLanes="1" speed="44.44" allow="rail" oneway="1"/>
    <type id="railway.subway" priority="18" numLanes="1" speed="27.78" allow="rail_urban" oneway="1"/>
    <type id="railway.tram" priority="17" numLanes="1" speed="13.89" allow="tram" oneway="1"/>

    <edge id=":10130143858_0" function="internal">
        <lane id=":10130143858_0_0" index="0" disallow="tram rail_urban rail rail_electric rail_fast ship" speed="22.22" length="5.18" shape="3398.30,2527.90 3393.79,2525.35"/>
    </edge>
    <edge id=":10130143858_1" function="internal">
        <lane id=":10130143858_1_0" index="0" disallow="tram rail_urban rail rail_electric rail_fast ship" speed="22.22" length="5.12" shape="3395.39,2522.58 3399.84,2525.10"/>
    </edge>
    <edge id=":10148665539_0" function="internal">
        <lane id=":10148665539_0_0" index="0" disallow="pedestrian bicycle tram rail_urban rail rail_electric rail_fast ship" speed="16.67" length="0.30" shape="2034.85,2392.67 2034.59,2392.82"/>
        <lane id=":10148665539_0_1" index="1" disallow="pedestrian bicycle tram rail_urban rail rail_electric rail_fast ship" speed="16.67" length="0.30" shape="2033.26,2389.89 2033.00,2390.04"/>
    </edge>
    <edge id=":10148665540_0" function="internal">
        <lane id=":10148665540_0_0" index="0" disallow="pedestrian bicycle tram rail_urban rail rail_electric rail_fast ship" speed="16.67" length="0.30" shape="2036.40,2396.87 2036.66,2396.72"/>
        <lane id=":10148665540_0_1" index="1" disallow="pedestrian bicycle tram rail_urban rail rail_electric rail_fast ship" speed="16.67" length="0.30" shape="2037.96,2399.66 2038.23,2399.51"/>
    </edge>
    <edge id=":1676296112_0" function="internal">
        <lane id=":1676296112_0_0" index="0" disallow="tram rail_urban rail rail_electric rail_fast ship" speed="6.52" length="8.98" shape="3320.38,2813.47 3318.08,2812.63 3316.05,2812.72 3314.29,2813.75 3312.81,2815.71"/>
    </edge>
    <edge id=":1676296112_1" function="internal">
        <lane id=":1676296112_1_0" index="0" disallow="tram rail_urban rail rail_electric rail_fast ship" speed="18.05" length="14.29" shape="3320.38,2813.47 3307.87,2806.58"/>
    </edge>
    <edge id=":1676296112_2" function="internal">
        <lane id=":1676296112_2_0" index="0" disallow="tram rail_urban rail rail_electric rail_fast ship" speed="3.65" length="2.34" shape="3320.38,2813.47 3319.70,2812.20 3319.73,2811.30"/>
    </edge>
    <edge id=":1676296112_9" function="internal">
        <lane id=":1676296112_9_0" index="0" disallow="tram rail_urban rail rail_electric rail_fast ship" speed="3.65" length="2.34" shape="3319.73,2811.30 3320.46,2810.79 3321.89,2810.65"/>
    </edge>
    <edge id=":1676296112_3" function="internal">
        <lane id=":1676296112_3_0" index="0" disallow="tram rail_urban rail rail_electric rail_fast ship" speed="18.05" length="14.21" shape="3309.44,2803.79 3321.89,2810.65"/>
    </edge>
    <edge id=":1676296112_4" function="internal">
        <lane id=":1676296112_4_0" index="0" disallow="tram rail_urban rail rail_electric rail_fast ship" speed="8.00" length="5.79" shape="3309.44,2803.79 3312.50,2806.15 3313.46,2807.83"/>
    </edge>
    <edge id=":1676296112_5" function="internal">
        <lane id=":1676296112_5_0" index="0" disallow="tram rail_urban rail rail_electric rail_fast ship" speed="3.65" length="2.34" shape="3309.44,2803.79 3310.09,2805.08 3310.05,2805.97"/>
    </edge>
    <edge id=":1676296112_10" function="internal">
        <lane id=":1676296112_10_0" index="0" disallow="tram rail_urban rail rail_electric rail_fast ship" speed="8.00" length="8.30" shape="3313.46,2807.83 3314.08,2808.92 3314.18,2812.11 3312.81,2815.71"/>
    </edge>
    <edge id=":1676296112_11" function="internal">
        <lane id=":1676296112_11_0" index="0" disallow="tram rail_urban rail rail_electric rail_fast ship" speed="3.65" length="2.34" shape="3310.05,2805.97 3309.31,2806.47 3307.87,2806.58"/>
    </edge>
    <edge id=":1676296112_6" function="internal">
        <lane id=":1676296112_6_0" index="0" disallow="tram rail_urban rail rail_electric rail_fast ship" speed="6.51" length="8.97" shape="3310.01,2814.16 3310.88,2811.87 3310.82,2809.84 3309.81,2808.08 3307.87,2806.58"/>
    </edge>
    <edge id=":1676296112_7" function="internal">
        <lane id=":1676296112_7_0" index="0" disallow="tram rail_urban rail rail_electric rail_fast ship" speed="8.01" length="14.09" shape="3310.01,2814.16 3312.33,2811.09 3315.09,2809.47 3318.28,2809.33 3321.89,2810.65"/>
    </edge>
    <edge id=":1676296112_8" function="internal">
        <lane id=":1676296112_8_0" index="0" disallow="tram rail_urban rail rail_electric rail_fast ship" speed="3.65" length="4.67" shape="3310.01,2814.16 3311.29,2813.50 3312.18,2813.54 3312.69,2814.28 3312.81,2815.71"/>
    </edge>
    <edge id=":1676296114_0" function="internal">
        <lane id=":1676296114_0_0" index="0" disallow="tram rail_urban rail rail_electric rail_fast ship" speed="3.65" length="4.67" shape="3329.16,2814.54 3329.84,2815.81 3329.82,2816.71 3329.09,2817.23 3327.65,2817.36"/>
    </edge>
    <edge id=":1676296141_0" function="internal">
        <lane id=":1676296141_0_0" index="0" disallow="tram rail_urban rail rail_electric rail_fast ship" speed="6.47" length="9.03" shape="3223.76,2849.63 3221.45,2848.71 3219.42,2848.76 3217.65,2849.77 3216.16,2851.75"/>
    </edge>
    <edge id=":1676296141_1" function="internal">
        <lane id=":1676296141_1_0" index="0" disallow="tram rail_urban rail rail_electric rail_fast ship" speed="22.22" length="13.43" shape="3223.76,2849.63 3212.22,2842.75"/>
    </edge>
    <edge id=":1676296141_2" function="internal">
        <lane id=":1676296141_2_0" index="0" disallow="tram rail_urban rail rail_electric rail_fast ship" speed="7.83" length="13.56" shape="3223.76,2849.63 3221.43,2847.36 3220.00,2844.14 3219.64,2840.63 3220.53,2837.49"/>
    </edge>
    <edge id=":1676296141_3" function="internal">
        <lane id=":1676296141_3_0" index="0" disallow="tram rail_urban rail rail_electric rail_fast ship" speed="3.65" length="4.67" shape="3223.76,2849.63 3223.12,2848.33 3223.17,2847.44 3223.91,2846.95 3225.35,2846.85"/>
    </edge>
    <edge id=":1676296141_4" function="internal">
        <lane id=":1676296141_4_0" index="0" disallow="tram rail_urban rail rail_electric rail_fast ship" speed="6.54" length="9.16" shape="3223.30,2839.09 3222.36,2841.43 3222.39,2843.50 3223.39,2845.31 3225.35,2846.85"/>
    </edge>
    <edge id=":1676296141_5" function="internal">
        <lane id=":1676296141_5_0" index="0" disallow="tram rail_urban rail rail_electric rail_fast ship" speed="22.22" length="14.54" shape="3223.30,2839.09 3216.16,2851.75"/>
    </edge>
    <edge id=":1676296141_6" function="internal">
        <lane id=":1676296141_6_0" index="0" disallow="tram rail_urban rail rail_electric rail_fast ship" speed="7.49" length="4.79" shape="3223.30,2839.09 3221.21,2841.37 3219.72,2842.17"/>
    </edge>
    <edge id=":1676296141_7" function="internal">
        <lane id=":1676296141_7_0" index="0" disallow="tram rail_urban rail rail_electric rail_fast ship" speed="3.65" length="2.34" shape="3223.30,2839.09 3222.01,2839.73 3221.11,2839.68"/>
    </edge>
    <edge id=":1676296141_16" function="internal">
        <lane id=":1676296141_16_0" index="0" disallow="tram rail_urban rail rail_electric rail_fast ship" speed="7.49" length="7.85" shape="3219.72,2842.17 3218.27,2842.95 3215.07,2843.52 3212.22,2842.75"/>
    </edge>
    <edge id=":1676296141_17" function="internal">
        <lane id=":1676296141_17_0" index="0" disallow="tram rail_urban rail rail_electric rail_fast ship" speed="3.65" length="2.34" shape="3221.11,2839.68 3220.62,2838.93 3220.53,2837.49"/>
    </edge>
    <edge id=":1676296141_8" function="internal">
        <lane id=":1676296141_8_0" index="0" disallow="tram rail_urban rail rail_electric rail_fast ship" speed="6.13" length="8.11" shape="3213.91,2840.03 3215.75,2840.76 3217.46,2840.58 3219.05,2839.49 3220.53,2837.49"/>
    </edge>
    <edge id=":1676296141_9" function="internal">
        <lane id=":1676296141_9_0" index="0" disallow="tram rail_urban rail rail_electric rail_fast ship" speed="22.22" length="13.32" shape="3213.91,2840.03 3225.35,2846.85"/>
    </edge>
    <edge id=":1676296141_10" function="internal">
        <lane id=":1676296141_10_0" index="0" disallow="tram rail_urban rail rail_electric rail_fast ship" speed="7.77" length="12.80" shape="3213.91,2840.03 3215.90,2842.23 3216.97,2845.34 3217.07,2848.73 3216.16,2851.75"/>
    </edge>
    <edge id=":1676296141_11" function="internal">
        <lane id=":1676296141_11_0" index="0" disallow="tram rail_urban rail rail_electric rail_fast ship" speed="3.65" length="4.67" shape="3213.91,2840.03 3214.51,2841.35 3214.42,2842.24 3213.66,2842.70 3212.22,2842.75"/>
    </edge>
    <edge id=":1676296141_12" function="internal">
        <lane id=":1676296141_12_0" index="0" disallow="tram rail_urban rail rail_electric rail_fast ship" speed="6.44" length="8.47" shape="3213.36,2850.20 3214.33,2847.85 3214.46,2845.83 3213.76,2844.13 3212.22,2842.75"/>
    </edge>
    <edge id=":1676296141_13" function="internal">
        <lane id=":1676296141_13_0" index="0" disallow="tram rail_urban rail rail_electric rail_fast ship" speed="22.22" length="14.59" shape="3213.36,2850.20 3220.53,2837.49"/>
    </edge>
    <edge id=":1676296141_14" function="internal">
        <lane id=":1676296141_14_0" index="0" disallow="tram rail_urban rail rail_electric rail_fast ship" speed="7.76" length="4.63" shape="3213.36,2850.20 3215.57,2847.85 3216.85,2847.27"/>
    </edge>
    <edge id=":1676296141_15" function="internal">
        <lane id=":1676296141_15_0" index="0" disallow="tram rail_urban rail rail_electric rail_fast ship" speed="3.65" length="2.34" shape="3213.36,2850.20 3214.64,2849.54 3215.53,2849.58"/>
    </edge>
    <edge id=":1676296141_18" function="internal">
        <lane id=":1676296141_18_0" index="0" disallow="tram rail_urban rail rail_electric rail_fast ship" speed="7.76" length="8.83" shape="3216.85,2847.27 3218.76,2846.39 3222.24,2845.99 3225.35,2846.85"/>
    </edge>
    <edge id=":1676296141_19" function="internal">
        <lane id=":1676296141_19_0" index="0" disallow="tram rail_urban rail rail_electric rail_fast ship" speed="3.65" length="2.34" shape="3215.53,2849.58 3216.04,2850.31 3216.16,2851.75"/>
    </edge>
    <edge id=":1676296210_0" function="internal">
        <lane id=":1676296210_0_0" index="0" disallow="tram rail_urban rail rail_electric rail_fast ship" speed="22.22" length="14.34" shape="3281.79,2883.03 3269.40,2875.81"/>
    </edge>
    <edge id=":1676296210_1" function="internal">
        <lane id=":1676296210_1_0" index="0" disallow="tram rail_urban rail rail_electric rail_fast ship" speed="8.08" length="5.82" shape="3281.79,2883.03 3278.79,2880.62 3277.85,2878.89"/>
    </edge>
    <edge id=":1676296210_2" function="internal">
        <lane id=":1676296210_2_0" index="0" disallow="tram rail_urban rail rail_electric rail_fast ship" speed="3.65" length="2.34" shape="3281.79,2883.03 3281.17,2881.73 3281.23,2880.84"/>
    </edge>
    <edge id=":1676296210_9" function="internal">
        <lane id=":1676296210_9_0" index="0" disallow="tram rail_urban rail rail_electric rail_fast ship" speed="8.08" length="8.38" shape="3277.85,2878.89 3277.26,2877.80 3277.20,2874.56 3278.59,2870.92"/>
    </edge>
    <edge id=":1676296210_10" function="internal">
        <lane id=":1676296210_10_0" index="0" disallow="tram rail_urban rail rail_electric rail_fast ship" speed="3.65" length="2.34" shape="3281.23,2880.84 3281.98,2880.35 3283.42,2880.28"/>
    </edge>
    <edge id=":1676296210_3" function="internal">
        <lane id=":1676296210_3_0" index="0" disallow="tram rail_urban rail rail_electric rail_fast ship" speed="6.61" length="9.14" shape="3281.39,2872.47 3280.49,2874.82 3280.52,2876.91 3281.50,2878.73 3283.42,2880.28"/>
    </edge>
    <edge id=":1676296210_4" function="internal">
        <lane id=":1676296210_4_0" index="0" disallow="tram rail_urban rail rail_electric rail_fast ship" speed="7.97" length="14.25" shape="3281.39,2872.47 3279.03,2875.59 3276.25,2877.19 3273.04,2877.26 3269.40,2875.81"/>
    </edge>
    <edge id=":1676296210_5" function="internal">
        <lane id=":1676296210_5_0" index="0" disallow="tram rail_urban rail rail_electric rail_fast ship" speed="3.65" length="4.67" shape="3281.39,2872.47 3280.11,2873.13 3279.22,2873.09 3278.71,2872.36 3278.59,2870.92"/>
    </edge>
    <edge id=":1676296210_6" function="internal">
        <lane id=":1676296210_6_0" index="0" disallow="tram rail_urban rail rail_electric rail_fast ship" speed="6.47" length="9.03" shape="3270.99,2873.04 3273.30,2873.96 3275.33,2873.91 3277.10,2872.90 3278.59,2870.92"/>
    </edge>
    <edge id=":1676296210_7" function="internal">
        <lane id=":1676296210_7_0" index="0" disallow="tram rail_urban rail rail_electric rail_fast ship" speed="22.22" length="14.38" shape="3270.99,2873.04 3283.42,2880.28"/>
    </edge>
    <edge id=":1676296210_8" function="internal">
        <lane id=":1676296210_8_0" index="0" disallow="tram rail_urban rail rail_electric rail_fast ship" speed="3.65" length="2.34" shape="3270.99,2873.04 3271.63,2874.33 3271.58,2875.22"/>
    </edge>
    <edge id=":1676296210_11" function="internal">
        <lane id=":1676296210_11_0" index="0" disallow="tram rail_urban rail rail_electric rail_fast ship" speed="3.65" length="2.34" shape="3271.58,2875.22 3270.84,2875.72 3269.40,2875.81"/>
    </edge>
    <edge id=":1676296250_0" function="internal">
        <lane id=":1676296250_0_0" index="0" disallow="tram rail_urban rail rail_electric rail_fast ship" speed="16.46" length="16.41" shape="3193.26,2904.45 3190.05,2902.08 3186.94,2899.17 3184.26,2895.91 3182.33,2892.47"/>
    </edge>
    <edge id=":1676296250_1" function="internal">
        <lane id=":1676296250_1_0" index="0" disallow="tram rail_urban rail rail_electric rail_fast ship" speed="8.67" length="6.38" shape="3193.26,2904.45 3190.49,2901.86 3189.54,2899.45"/>
    </edge>
    <edge id=":1676296250_2" function="internal">
        <lane id=":1676296250_2_0" index="0" disallow="tram rail_urban rail rail_electric rail_fast ship" speed="3.65" length="2.34" shape="3193.26,2904.45 3192.69,2903.13 3192.79,2902.24"/>
    </edge>
    <edge id=":1676296250_9" function="internal">
        <lane id=":1676296250_9_0" index="0" disallow="tram rail_urban rail rail_electric rail_fast ship" speed="8.67" length="9.34" shape="3189.54,2899.45 3189.24,2898.67 3189.48,2894.89 3191.24,2890.51"/>
    </edge>
    <edge id=":1676296250_10" function="internal">
        <lane id=":1676296250_10_0" index="0" disallow="tram rail_urban rail rail_electric rail_fast ship" speed="3.65" length="2.34" shape="3192.79,2902.24 3193.57,2901.79 3195.01,2901.77"/>
    </edge>
    <edge id=":1676296250_3" function="internal">
        <lane id=":1676296250_3_0" index="0" disallow="tram rail_urban rail rail_electric rail_fast ship" speed="7.31" length="10.90" shape="3194.06,2892.02 3192.76,2895.17 3192.48,2897.84 3193.23,2900.04 3195.01,2901.77"/>
    </edge>
    <edge id=":1676296250_4" function="internal">
        <lane id=":1676296250_4_0" index="0" disallow="tram rail_urban rail rail_electric rail_fast ship" speed="7.27" length="17.58" shape="3194.06,2892.02 3190.80,2896.76 3187.76,2898.41 3184.94,2896.98 3182.33,2892.47"/>
    </edge>
    <edge id=":1676296250_5" function="internal">
        <lane id=":1676296250_5_0" index="0" disallow="tram rail_urban rail rail_electric rail_fast ship" speed="3.65" length="4.67" shape="3194.06,2892.02 3192.79,2892.70 3191.89,2892.68 3191.38,2891.95 3191.24,2890.51"/>
    </edge>
    <edge id=":1676296250_6" function="internal">
        <lane id=":1676296250_6_0" index="0" disallow="tram rail_urban rail rail_electric rail_fast ship" speed="5.49" length="9.35" shape="3185.01,2890.57 3186.41,2893.01 3187.91,2893.82 3189.52,2892.98 3191.24,2890.51"/>
    </edge>
    <edge id=":1676296250_7" function="internal">
        <lane id=":1676296250_7_0" index="0" disallow="tram rail_urban rail rail_electric rail_fast ship" speed="15.86" length="15.22" shape="3185.01,2890.57 3186.79,2893.88 3189.15,2896.88 3191.95,2899.52 3195.01,2901.77"/>
    </edge>
    <edge id=":1676296250_8" function="internal">
        <lane id=":1676296250_8_0" index="0" disallow="tram rail_urban rail rail_electric rail_fast ship" speed="3.68" length="2.62" shape="3185.01,2890.57 3185.06,2892.05 3184.62,2892.86 3184.40,2892.89"/>
    </edge>
    <edge id=":1676296250_11" function="internal">
        <lane id=":1676296250_11_0" index="0" disallow="tram rail_urban rail rail_electric rail_fast ship" speed="3.68" length="2.17" shape="3184.40,2892.89 3183.72,2893.00 3182.33,2892.47"/>
    </edge>
    <edge id=":1677061415_0" function="internal">
        <lane id=":1677061415_0_0" index="0" allow="pedestrian delivery bicycle" speed="3.65" length="4.67" shape="1901.70,5342.64 1900.26,5342.65 1899.48,5342.22 1899.36,5341.33 1899.90,5339.99"/>
    </edge>
    <edge id=":1734275321_0" function="internal">
        <lane id=":1734275321_0_0" index="0" allow="pedestrian bicycle" speed="2.04" length="1.46" width="1.00" shape="470.39,2604.53 469.95,2604.46 469.73,2604.28 469.74,2604.00 469.98,2603.62"/>
    </edge>
    <edge id=":1819651393_0" function="internal">
        <lane id=":1819651393_0_0" index="0" allow="pedestrian delivery bicycle" speed="3.65" length="4.67" shape="1481.65,4089.65 1482.64,4088.61 1483.50,4088.35 1484.22,4088.88 1484.80,4090.20"/>
    </edge>
    <edge id=":1819709391_0" function="internal">
        <lane id=":1819709391_0_0" index="0" allow="pedestrian delivery bicycle" speed="3.65" length="4.67" shape="2768.49,5284.45 2767.21,5285.11 2766.32,5285.07 2765.81,5284.33 2765.70,5282.89"/>
    </edge>
    <edge id=":1819718698_0" function="internal">
        <lane id=":1819718698_0_0" index="0" allow="pedestrian delivery bicycle" speed="5.56" length="6.02" shape="1111.57,3231.70 1111.44,3233.39 1111.74,3234.83 1112.47,3236.00 1113.63,3236.91"/>
    </edge>
    <edge id=":1819718698_1" function="internal">
        <lane id=":1819718698_1_0" index="0" allow="pedestrian delivery bicycle" speed="5.56" length="6.88" shape="1107.63,3233.54 1113.63,3236.91"/>
    </edge>
    <edge id=":1819718698_2" function="internal">
        <lane id=":1819718698_2_0" index="0" allow="pedestrian delivery bicycle" speed="5.01" length="5.04" shape="1109.42,3238.15 1110.23,3237.03 1111.20,3236.44 1112.33,3236.40 1113.63,3236.91"/>
    </edge>
    <edge id=":1819718703_0" function="internal">
        <lane id=":1819718703_0_0" index="0" allow="pedestrian delivery bicycle" speed="5.01" length="5.05" shape="1090.94,3266.62 1092.24,3267.13 1093.38,3267.10 1094.35,3266.52 1095.17,3265.39"/>
    </edge>
    <edge id=":1819718703_1" function="internal">
        <lane id=":1819718703_1_0" index="0" allow="pedestrian delivery bicycle" speed="5.56" length="6.32" shape="1092.02,3270.87 1095.17,3265.39"/>
    </edge>
    <edge id=":1819718704_0" function="internal">
        <lane id=":1819718704_0_0" index="0" allow="pedestrian delivery bicycle" speed="5.12" length="5.08" shape="1017.02,3200.55 1016.57,3201.84 1016.65,3202.97 1017.25,3203.97 1018.38,3204.82"/>
    </edge>
    <edge id=":1819718704_1" function="internal">
        <lane id=":1819718704_1_0" index="0" allow="pedestrian delivery bicycle" speed="5.56" length="6.25" shape="1017.02,3200.55 1014.20,3206.13"/>
    </edge>
    <edge id=":1819718706_0" function="internal">
        <lane id=":1819718706_0_0" index="0" allow="pedestrian delivery bicycle" speed="9.72" length="10.20" shape="1012.33,3161.56 1011.24,3164.00 1010.69,3166.45 1010.70,3168.92 1011.27,3171.40"/>
    </edge>
    <edge id=":1819718706_1" function="internal">
        <lane id=":1819718706_1_0" index="0" disallow="tram rail_urban rail rail_electric rail_fast ship" speed="13.89" length="10.13" shape="1012.33,3161.56 1007.36,3170.38"/>
    </edge>
    <edge id=":1819718708_0" function="internal">
        <lane id=":1819718708_0_0" index="0" allow="pedestrian delivery bicycle" speed="5.01" length="5.04" shape="1099.51,3250.32 1100.80,3250.82 1101.93,3250.78 1102.90,3250.20 1103.71,3249.07"/>
    </edge>
    <edge id=":1819718708_1" function="internal">
        <lane id=":1819718708_1_0" index="0" allow="pedestrian delivery bicycle" speed="5.56" length="6.20" shape="1100.84,3254.57 1103.71,3249.07"/>
    </edge>
    <edge id=":1819718710_0" function="internal">
        <lane id=":1819718710_0_0" index="0" allow="pedestrian delivery bicycle" speed="5.13" length="4.97" shape="1009.03,3216.69 1008.61,3217.96 1008.70,3219.09 1009.28,3220.07 1010.37,3220.90"/>
    </edge>
    <edge id=":1819718710_1" function="internal">
        <lane id=":1819718710_1_0" index="0" allow="pedestrian delivery bicycle" speed="5.56" length="6.06" shape="1009.03,3216.69 1006.13,3222.01"/>
    </edge>
    <edge id=":1819718715_0" function="internal">
        <lane id=":1819718715_0_0" index="0" allow="pedestrian delivery bicycle" speed="5.07" length="5.06" shape="1130.50,3246.43 1131.80,3246.94 1132.95,3246.93 1133.95,3246.38 1134.79,3245.30"/>
    </edge>
    <edge id=":1819718715_1" function="internal">
        <lane id=":1819718715_1_0" index="0" allow="pedestrian bus delivery bicycle" speed="8.34" length="6.27" shape="1131.59,3250.68 1134.79,3245.30"/>
    </edge>
    <edge id=":1819718716_0" function="internal">
        <lane id=":1819718716_0_0" index="0" allow="pedestrian delivery bicycle" speed="5.21" length="4.84" shape="1020.16,3189.12 1021.03,3190.09 1022.02,3190.60 1023.14,3190.65 1024.38,3190.24"/>
    </edge>
    <edge id=":1819718716_1" function="internal">
        <lane id=":1819718716_1_0" index="0" allow="pedestrian delivery bicycle" speed="5.56" length="4.84" shape="1020.16,3189.12 1020.80,3190.30 1021.09,3191.46 1021.03,3192.59 1020.63,3193.69"/>
    </edge>
    <edge id=":1819853894_0" function="internal">
        <lane id=":1819853894_0_0" index="0" disallow="tram rail_urban rail rail_electric rail_fast ship" speed="22.22" length="0.10" shape="3898.65,2197.39 3898.61,2197.47"/>
    </edge>
    <edge id=":1819853894_1" function="internal">
        <lane id=":1819853894_1_0" index="0" disallow="tram rail_urban rail rail_electric rail_fast ship" speed="22.22" length="0.10" shape="3895.85,2195.84 3895.81,2195.92"/>
    </edge>
    <edge id=":1819897445_0" function="internal">
        <lane id=":1819897445_0_0" index="0" allow="pedestrian delivery bicycle" speed="5.56" length="14.67" shape="2931.22,4192.66 2918.23,4185.83"/>
    </edge>
    <edge id=":1819897445_1" function="internal">
        <lane id=":1819897445_1_0" index="0" allow="pedestrian delivery bicycle" speed="5.56" length="17.39" shape="2931.22,4192.66 2926.77,4189.69 2925.62,4186.98 2927.77,4184.55 2933.21,4182.38"/>
    </edge>
    <edge id=":1819897445_2" function="internal">
        <lane id=":1819897445_2_0" index="0" allow="pedestrian delivery bicycle" speed="3.65" length="4.67" shape="2931.22,4192.66 2930.51,4191.40 2930.52,4190.51 2931.24,4189.98 2932.67,4189.81"/>
    </edge>
    <edge id=":1819897445_3" function="internal">
        <lane id=":1819897445_3_0" index="0" allow="pedestrian delivery bicycle" speed="4.75" length="7.02" shape="2933.41,4185.65 2931.23,4186.52 2930.38,4187.51 2930.86,4188.60 2932.67,4189.81"/>
    </edge>
    <edge id=":1819897445_4" function="internal">
        <lane id=":1819897445_4_0" index="0" allow="pedestrian delivery bicycle" speed="5.56" length="15.54" shape="2933.41,4185.65 2928.53,4186.79 2924.37,4187.20 2920.94,4186.88 2918.23,4185.83"/>
    </edge>
    <edge id=":1819897445_5" function="internal">
        <lane id=":1819897445_5_0" index="0" allow="pedestrian delivery bicycle" speed="3.68" length="4.79" shape="2933.41,4185.65 2932.13,4184.91 2931.67,4184.12 2932.03,4183.28 2933.21,4182.38"/>
    </edge>
    <edge id=":1819897445_6" function="internal">
        <lane id=":1819897445_6_0" index="0" allow="pedestrian delivery bicycle" speed="5.56" length="13.62" shape="2919.88,4183.09 2922.03,4183.84 2924.96,4183.97 2928.69,4183.48 2933.21,4182.38"/>
    </edge>
    <edge id=":1819897445_7" function="internal">
        <lane id=":1819897445_7_0" index="0" allow="pedestrian delivery bicycle" speed="5.56" length="14.45" shape="2919.88,4183.09 2932.67,4189.81"/>
    </edge>
    <edge id=":1819897445_8" function="internal">
        <lane id=":1819897445_8_0" index="0" allow="pedestrian delivery bicycle" speed="3.65" length="4.67" shape="2919.88,4183.09 2920.50,4184.40 2920.43,4185.29 2919.67,4185.77 2918.23,4185.83"/>
    </edge>
    <edge id=":1819897450_0" function="internal">
        <lane id=":1819897450_0_0" index="0" allow="pedestrian delivery bicycle" speed="5.56" length="6.80" shape="2847.50,4345.16 2851.67,4352.08"/>