<?xml version="1.0" encoding="UTF-8"?>

<!-- generated on 2022-11-09 14:53:42 by Eclipse SUMO sumo Version 1.11.0
-->

<configuration xmlns:xsi="http://www.w3.org/2001/XMLSchema-instance" xsi:noNamespaceSchemaLocation="http://sumo.dlr.de/xsd/sumoConfiguration.xsd">

    <input>
        <net-file value="osm.net.xml"/>
        <route-files value="osm.rou.xml"/>
        
    </input>


</configuration>
