<?xml version="1.0" encoding="UTF-8"?>
<!-- generated on 2022-11-10 10:58:16 by Eclipse SUMO polyconvert Version 1.11.0
<configuration xmlns:xsi="http://www.w3.org/2001/XMLSchema-instance" xsi:noNamespaceSchemaLocation="http://sumo.dlr.de/xsd/polyconvertConfiguration.xsd">

    <input>
        <net-file value="map.net.xml"/>
        <osm-files value="map.osm"/>
        <type-file value="typemap.xml"/>
    </input>

    <output>
        <output-file value="map.poly.xml"/>
    </output>

    <processing>
        <poi-layer-offset value="5"/>
    </processing>

</configuration>
-->

<additional xmlns:xsi="http://www.w3.org/2001/XMLSchema-instance" xsi:noNamespaceSchemaLocation="http://sumo.dlr.de/xsd/additional_file.xsd">
    <location netOffset="-387073.32,-3931032.58" convBoundary="-10596.19,-6344.43,6504.84,12512.30" origBoundary="139.638763,35.458013,139.837700,35.630374" projParameter="+proj=utm +zone=54 +ellps=WGS84 +datum=WGS84 +units=m +no_defs"/>

    <poly id="1007079206" type="building" color="255,230,230" fill="1" layer="-1.00" shape="2802.842614,3644.042336 2804.890400,3640.278701 2810.530626,3643.326326 2808.482838,3647.089960 2802.842614,3644.042336"/>
    <poly id="1007079207" type="building" color="255,230,230" fill="1" layer="-1.00" shape="3001.925859,3374.367567 3006.362150,3365.771269 3014.755698,3370.060849 3010.319401,3378.657143 3001.925859,3374.367567"/>
    <poly id="1026001770" type="building" color="255,230,230" fill="1" layer="-1.00" shape="2483.908692,3898.430700 2492.709758,3903.435800 2498.087689,3894.073236 2489.286617,3889.068132 2483.908692,3898.430700"/>
    <poly id="1083913848" type="building" color="255,230,230" fill="1" layer="-1.00" shape="3246.926539,3324.187743 3260.325542,3300.505836 3299.616632,3322.553594 3286.217563,3346.235441 3246.926539,3324.187743"/>
    <poly id="1083913851" type="landuse" color="194,194,130" fill="1" layer="-3.00" shape="2458.222484,2715.753717 2472.124174,2723.280459 2477.299814,2729.029269 2480.525686,2736.211015 2481.616115,2743.740862 2480.248717,2752.676644 2476.978570,2761.713602 2471.838878,2758.870748 2466.517215,2769.175507 2463.561577,2788.247867 2447.198963,2817.791543 2445.093481,2776.573316 2448.964518,2767.007536 2447.799033,2737.281264 2458.222484,2715.753717"/>
    <poly id="1083913852" type="landuse" color="194,194,130" fill="1" layer="-3.00" shape="2936.208813,2295.794742 2884.529841,2266.646090 2881.184528,2265.211908 2876.015623,2263.689258 2872.826152,2263.129515 2869.368259,2262.861500 2865.715974,2263.006326 2861.979589,2263.684659 2858.251402,2265.028478 2854.667129,2267.013926 2851.342301,2269.450997 2848.292865,2272.162004 2845.562510,2275.013291 2843.176382,2277.838152 2841.150838,2280.492174 2839.538493,2282.830499 2837.351361,2286.351775 2779.699806,2389.107815 2936.208813,2295.794742"/>
    <poly id="1083913853" type="landuse" color="194,194,130" fill="1" layer="-3.00" shape="4148.014273,3234.418475 4141.697489,3233.863101 4136.617877,3231.417935 4121.371054,3223.428062 4119.277254,3181.044784 4118.772453,3165.653761 4119.552134,3151.511701 4118.397525,3134.875078 4116.079915,3125.474207 4107.654188,3107.350947 4102.153852,3096.424731 4100.790455,3087.955148 4101.947243,3079.465955 4106.277686,3072.502220 4122.080869,3048.736957 4128.028380,3044.271663 4137.427100,3038.810337 4145.298366,3037.460962 4152.559412,3037.372540 4163.047726,3043.212894 4169.730245,3048.478385 4172.978045,3055.349818 4174.959162,3063.179584 4175.383517,3071.971214 4173.563165,3103.408921 4171.171878,3140.821648 4163.106168,3178.314565 4157.148884,3207.284533 4148.014273,3234.418475"/>
    <poly id="1085099345" type="building" color="255,230,230" fill="0" layer="-1.00" shape="305.653556,6134.804907 300.724384,6099.002518 417.796843,5758.992108 1065.001087,5351.799344 1107.926371,5413.106293"/>
    <poly id="1097339200" type="aeroway" color="grey" fill="0" layer="-2.00" shape="4339.743971,2814.476562 4347.225914,2801.218173 4354.750746,2788.502829"/>
    <poly id="1097339201" type="aeroway" color="grey" fill="0" layer="-2.00" shape="4351.115881,2824.377548 4360.072192,2808.594222 4367.543352,2795.191773"/>
    <poly id="1097339202" type="aeroway" color="grey" fill="0" layer="-2.00" shape="4291.975258,2900.451634 4298.557660,2888.535303 4306.965692,2873.157933"/>
    <poly id="1097339203" type="aeroway" color="grey" fill="0" layer="-2.00" shape="4303.863241,2908.061115 4310.908678,2895.451393 4311.587947,2893.901200 4322.178013,2874.548190"/>
    <poly id="1097339204" type="aeroway" color="grey" fill="0" layer="-2.00" shape="4185.888542,3045.674799 4203.854118,3039.399305 4219.915916,3033.879157"/>
    <poly id="1097339205" type="aeroway" color="grey" fill="0" layer="-2.00" shape="4094.750800,3249.299703 4102.352121,3236.971437 4109.763519,3223.935537"/>
    <poly id="1097339206" type="aeroway" color="grey" fill="0" layer="-2.00" shape="4108.202402,3255.791652 4114.566049,3243.822360 4122.003437,3230.686316"/>
    <poly id="1097339207" type="aeroway" color="grey" fill="0" layer="-2.00" shape="4073.909085,3255.355347 4088.390426,3251.118815 4094.750800,3249.299703"/>
    <poly id="1097339208" type="aeroway" color="grey" fill="0" layer="-2.00" shape="3911.216911,3533.080136 3926.641783,3528.199499 3929.815832,3526.796313 3944.630154,3521.656925"/>
    <poly id="1097339209" type="aeroway" color="grey" fill="0" layer="-2.00" shape="3725.344894,3903.430691 3710.997903,3903.728168 3679.151349,3903.762732"/>
    <poly id="1097339210" type="aeroway" color="grey" fill="0" layer="-2.00" shape="3349.682028,4577.956770 3346.430919,4563.442496 3345.671752,4559.935294 3342.193950,4542.461940"/>
    <poly id="1097339211" type="aeroway" color="grey" fill="0" layer="-2.00" shape="3001.198000,4997.113014 3031.636630,4942.659171 3043.046265,4922.573252 3054.119252,4902.380562 3077.810597,4860.866901"/>
    <poly id="1097339212" type="aeroway" color="grey" fill="0" layer="-2.00" shape="3132.035360,4955.268024 3130.680684,4950.514636 3125.398902,4934.527829"/>
    <poly id="1097339213" type="aeroway" color="grey" fill="0" layer="-2.00" shape="3118.991110,4981.752487 3126.045605,4969.418888 3133.081235,4956.286823"/>
    <poly id="1097339214" type="aeroway" color="grey" fill="0" layer="-2.00" shape="3130.921341,4988.505676 3137.848963,4976.173648 3145.195612,4963.270723"/>
    <poly id="1097339215" type="aeroway" color="grey" fill="0" layer="-2.00" shape="2939.992815,5327.954696 2950.390294,5309.644904 2951.448120,5307.956805 2958.192884,5295.538121"/>
    <poly id="1097339216" type="aeroway" color="grey" fill="0" layer="-2.00" shape="2930.296358,5314.884423 2938.505367,5300.661681 2945.405141,5288.318729"/>
    <poly id="1097339217" type="aeroway" color="grey" fill="0" layer="-2.00" shape="2881.933063,5400.376476 2889.203150,5387.940162 2896.632011,5375.146917"/>
    <poly id="1097339218" type="aeroway" color="grey" fill="0" layer="-2.00" shape="2895.210905,5407.656291 2902.264869,5395.333584 2909.481609,5382.243449"/>
    <poly id="1097339219" type="aeroway" color="grey" fill="0" layer="-2.00" shape="3529.108787,4250.062672 3522.453829,4238.130373 3504.279205,4207.880307"/>
    <poly id="1104043712" type="aeroway" color="grey" fill="0" layer="-2.00" shape="2614.531428,2755.288348 2607.253315,2768.701064 2599.790743,2782.593070"/>
    <poly id="1104043713" type="aeroway" color="grey" fill="0" layer="-2.00" shape="2595.484020,2787.726910 2603.488364,2800.085636 2610.742052,2812.597850"/>
    <poly id="1104043714" type="aeroway" color="grey" fill="0" layer="-2.00" shape="2402.042078,3133.206637 2393.708130,3147.697564 2385.713460,3161.762762"/>
    <poly id="1104043715" type="aeroway" color="grey" fill="0" layer="-2.00" shape="2381.758795,3166.748151 2389.552434,3179.663957 2396.600131,3191.646081"/>
    <poly id="1104043716" type="aeroway" color="grey" fill="0" layer="-2.00" shape="2272.676318,3412.880228 2257.800829,3413.031255 2243.189039,3413.245598"/>
    <poly id="1104043717" type="aeroway" color="grey" fill="0" layer="-2.00" shape="2195.627886,3499.474278 2187.715581,3513.549756 2179.442371,3527.762835"/>
    <poly id="1104043718" type="landuse" color="194,194,130" fill="1" layer="-3.00" shape="2380.550393,3557.696630 2377.504349,3549.647428 2370.172836,3544.746263 2361.870170,3541.953731 2354.095705,3542.282936 2353.263808,3553.441850 2356.045766,3562.126624 2360.215148,3564.981411 2369.418906,3562.205119 2380.550393,3557.696630"/>
    <poly id="1104043719" type="landuse" color="194,194,130" fill="1" layer="-3.00" shape="2236.429987,3505.025366 2199.675102,3482.961859 2193.049369,3477.963339 2188.357525,3471.731692 2186.070793,3464.249978 2185.947710,3454.323130 2189.021319,3447.030098 2183.153592,3444.673450 2223.391543,3374.698203 2226.495180,3369.823121 2231.595575,3369.515859 2233.568400,3371.421617 2234.828154,3375.044559 2236.429987,3505.025366"/>
    <poly id="1104043720" type="aeroway" color="grey" fill="0" layer="-2.00" shape="2356.550967,3671.032921 2361.734309,3658.400208 2364.136267,3645.912864 2363.743096,3633.926035 2362.121265,3628.876544 2359.203226,3620.914508 2356.209504,3614.894711 2350.288102,3608.190109 2335.680477,3597.000501"/>
    <poly id="1104043721" type="aeroway" color="grey" fill="0" layer="-2.00" shape="2407.799047,3578.669334 2400.032641,3589.902964 2390.888893,3597.526189 2379.896161,3602.986961 2368.604739,3604.823984 2359.253116,3605.172710 2351.080286,3603.343687 2344.242948,3601.010036 2335.680477,3597.000501"/>
    <poly id="1104043722" type="aeroway" color="grey" fill="0" layer="-2.00" shape="2324.909201,3522.244024 2316.652946,3532.718367 2305.345542,3542.786783 2291.087926,3549.619280 2278.836993,3552.311380 2264.490907,3552.001027 2254.979477,3549.700576 2238.348362,3542.041632"/>
    <poly id="1104043723" type="aeroway" color="grey" fill="0" layer="-2.00" shape="2288.132872,3570.144940 2275.769398,3560.092406 2268.240718,3550.989461 2263.020450,3541.613869 2259.628437,3529.797318"/>
    <poly id="1104043724" type="aeroway" color="grey" fill="0" layer="-2.00" shape="2317.546356,3535.314193 2313.661826,3546.677316 2313.078981,3558.177039 2315.153677,3569.044819 2317.677465,3576.645650 2323.134842,3585.408212 2327.574513,3590.322964 2335.680477,3597.000501"/>
    <poly id="1104043725" type="aeroway" color="grey" fill="0" layer="-2.00" shape="2335.680477,3597.000501 2326.282419,3593.600351 2313.979063,3592.055470 2303.787594,3593.401946 2290.589217,3597.913952 2280.830691,3604.934786 2268.490957,3622.404085"/>
    <poly id="1104043726" type="aeroway" color="grey" fill="0" layer="-2.00" shape="2335.680477,3597.000501 2381.637796,3626.505066"/>
    <poly id="1104043727" type="aeroway" color="grey" fill="0" layer="-2.00" shape="2268.490957,3622.404085 2272.665263,3603.704773 2272.710605,3587.608045 2268.650992,3573.858460 2263.167992,3563.032920 2254.411058,3553.579131 2238.348362,3542.041632"/>
    <poly id="1104043728" type="aeroway" color="grey" fill="0" layer="-2.00" shape="2238.348362,3542.041632 2288.132872,3570.144940 2335.680477,3597.000501"/>
    <poly id="1104043729" type="aeroway" color="grey" fill="0" layer="-2.00" shape="2028.003668,3850.334316 2013.184797,3850.607099 1997.130301,3850.662298"/>
    <poly id="1104043730" type="aeroway" color="grey" fill="0" layer="-2.00" shape="1937.373186,3958.154405 1929.199449,3973.009923 1921.070750,3987.110554"/>
    <poly id="1104043731" type="aeroway" color="grey" fill="0" layer="-2.00" shape="1782.037710,4283.863203 1767.090035,4283.927253 1752.433919,4284.109724"/>
    <poly id="1104043732" type="aeroway" color="grey" fill="0" layer="-2.00" shape="1750.369531,4289.404692 1742.029415,4303.951874 1734.072714,4317.984004"/>
    <poly id="1104043733" type="aeroway" color="grey" fill="0" layer="-2.00" shape="1664.206150,4472.084643 1650.790477,4481.581213 1635.946308,4492.105091"/>
    <poly id="1104043734" type="aeroway" color="grey" fill="0" layer="-2.00" shape="1583.430824,4584.977627 1595.434505,4576.397103 1606.985587,4567.866611"/>
    <poly id="1104043735" type="aeroway" color="grey" fill="0" layer="-2.00" shape="1396.480576,4942.282817 1384.591664,4950.562688 1372.684094,4958.798435"/>
    <poly id="1104043736" type="aeroway" color="grey" fill="0" layer="-2.00" shape="1265.742724,4811.098005 1277.656325,4801.885842 1292.847432,4791.634321"/>
    <poly id="1104043737" type="aeroway" color="grey" fill="0" layer="-2.00" shape="1477.225925,4437.498488 1489.018897,4428.731871 1501.561821,4419.767328"/>
    <poly id="1104043738" type="aeroway" color="grey" fill="0" layer="-2.00" shape="1528.898276,4340.997289 1542.623871,4331.629793 1557.107738,4321.276661"/>
    <poly id="1104043739" type="aeroway" color="grey" fill="0" layer="-2.00" shape="1575.173664,4288.492807 1567.789030,4276.415665 1559.783682,4263.270229"/>
    <poly id="1104043740" type="aeroway" color="grey" fill="0" layer="-2.00" shape="1717.909536,4035.564120 1710.341554,4023.322749 1702.514316,4009.919829"/>
    <poly id="1104043741" type="aeroway" color="grey" fill="0" layer="-2.00" shape="1787.471802,3911.996386 1795.788922,3897.749074 1803.884803,3883.205008"/>
    <poly id="1104043742" type="aeroway" color="grey" fill="0" layer="-2.00" shape="1952.561889,3619.967787 1945.553735,3608.273926 1937.173317,3594.855496"/>
    <poly id="1104043743" type="aeroway" color="grey" fill="0" layer="-2.00" shape="2046.715711,3452.423087 2054.436674,3438.283296 2062.653326,3423.904403"/>
    <poly id="1104043744" type="aeroway" color="grey" fill="0" layer="-2.00" shape="2131.943181,3444.221438 2149.456866,3425.068180"/>
    <poly id="1104043745" type="aeroway" color="grey" fill="0" layer="-2.00" shape="2149.456866,3425.068180 2143.254427,3443.238050 2142.715398,3458.253778 2145.062029,3471.292410 2152.409300,3485.489267 2159.705502,3494.839053 2171.831319,3504.716890"/>
    <poly id="1104043746" type="aeroway" color="grey" fill="0" layer="-2.00" shape="2089.004342,3533.898835 2097.350374,3516.068392 2099.271474,3504.307990 2098.231674,3489.189822 2095.037312,3476.516700 2089.551015,3465.447250 2081.162421,3455.745001 2070.842951,3447.519929"/>
    <poly id="1104043747" type="aeroway" color="grey" fill="0" layer="-2.00" shape="2171.831319,3504.716890 2164.398868,3501.192692 2153.795344,3498.562002 2138.581835,3497.763414 2123.179430,3500.738868 2110.246932,3506.956186 2100.164805,3517.120598 2089.004342,3533.898835"/>
    <poly id="1104043748" type="aeroway" color="grey" fill="0" layer="-2.00" shape="2131.943181,3444.221438 2123.632133,3448.806177 2113.704548,3452.434781 2103.873874,3453.643886 2093.540225,3453.772114 2083.063153,3452.570954 2070.842951,3447.519929"/>
    <poly id="1104043749" type="aeroway" color="grey" fill="0" layer="-2.00" shape="1999.093102,3407.255128 2054.436674,3438.283296 2070.842951,3447.519929"/>
    <poly id="1104043750" type="aeroway" color="grey" fill="0" layer="-2.00" shape="1999.093102,3407.255128 1986.390846,3402.088177 1974.202069,3399.577224 1958.399361,3400.261646 1944.347394,3404.673831 1933.132392,3411.946099 1926.756623,3417.594104 1919.515753,3426.580815"/>
    <poly id="1104043751" type="aeroway" color="grey" fill="0" layer="-2.00" shape="1919.515753,3426.580815 1926.670884,3410.695220 1928.401183,3402.564611 1928.672106,3395.184289 1928.086264,3387.437446 1926.057791,3380.329750 1922.186117,3372.268762 1917.851928,3365.655637 1913.415089,3360.996186 1903.846828,3354.148607"/>
    <poly id="1104043752" type="aeroway" color="grey" fill="0" layer="-2.00" shape="1999.093102,3407.255128 1987.442510,3399.168705 1980.306131,3391.758370 1975.076405,3382.383052 1971.197307,3372.990957 1968.611472,3361.153395 1968.847817,3350.256973 1970.398657,3338.623165 1974.529703,3328.155367"/>
    <poly id="1104043753" type="aeroway" color="grey" fill="0" layer="-2.00" shape="1974.529703,3328.155367 1966.123670,3341.882197 1961.022921,3347.270284 1955.546086,3351.575917 1948.605290,3355.533669 1939.279072,3358.677988 1932.184335,3359.731256 1923.674784,3360.014499 1915.207042,3358.555604 1909.590682,3356.739572 1903.846828,3354.148607"/>
    <poly id="1104043754" type="aeroway" color="grey" fill="0" layer="-2.00" shape="1838.132022,3369.164951 1844.105636,3361.070294 1849.274175,3356.036276 1857.426567,3351.819329 1865.175643,3348.705628 1873.299210,3347.273439 1881.567750,3347.292661 1890.093032,3348.273804 1896.012950,3350.441031 1903.846828,3354.148607"/>
    <poly id="1104043755" type="aeroway" color="grey" fill="0" layer="-2.00" shape="1903.846828,3354.148607 1896.917869,3349.575608 1892.181876,3344.919886 1888.051596,3340.855667 1884.150993,3334.847290 1881.350978,3329.856897 1878.854748,3324.507746 1877.125223,3317.385249 1876.193429,3310.984983 1877.021679,3303.952711 1878.593866,3298.419860 1881.002635,3293.087379"/>
    <poly id="1104043756" type="aeroway" color="grey" fill="0" layer="-2.00" shape="1999.093102,3407.255128 1903.846828,3354.148607"/>
    <poly id="1104043757" type="aeroway" color="grey" fill="0" layer="-2.00" shape="1873.484675,3337.398214 1903.846828,3354.148607"/>
    <poly id="1104043758" type="aeroway" color="grey" fill="0" layer="-2.00" shape="1819.891808,3306.549025 1873.484675,3337.398214"/>
    <poly id="1104043759" type="landuse" color="194,194,130" fill="1" layer="-3.00" shape="2056.294275,3488.601003 2033.978801,3513.094422 1991.898783,3551.378133 1963.226563,3572.800244 1939.815233,3586.402949 1930.862319,3590.385729 1917.751993,3591.757830 1907.751021,3589.463832 1899.683876,3585.936649 1892.305616,3579.483405 1885.365805,3568.920241 1881.308616,3555.414831 1886.210325,3539.135671 1900.657784,3507.484737 1921.822629,3469.948614 1927.212919,3473.276131 1943.939928,3449.950104 1956.216980,3439.869174 1971.253830,3436.653925 1986.962771,3438.644141 2001.148459,3445.001823 2040.810584,3466.773298 2051.398786,3477.657359 2056.294275,3488.601003"/>
    <poly id="1104043760" type="aeroway" color="grey" fill="0" layer="-2.00" shape="2269.119432,3057.710607 2260.772435,3072.601176 2252.760454,3086.722177"/>
    <poly id="1104043761" type="aeroway" color="grey" fill="0" layer="-2.00" shape="2396.945121,2779.886724 2411.287904,2779.831302 2426.002364,2779.771307"/>
    <poly id="1104043762" type="aeroway" color="grey" fill="0" layer="-2.00" shape="2411.287904,2779.831302 2412.422876,2831.999364 2409.538385,2874.399731 2402.550288,2918.548124 2391.912057,2962.985742 2374.356130,3018.402454 2356.023800,3060.150981"/>
    <poly id="1104043763" type="aeroway" color="grey" fill="0" layer="-2.00" shape="2304.158421,2745.603734 2313.701063,2734.980373 2326.493780,2726.890394 2338.115284,2723.063603 2344.121078,2721.891039 2356.946339,2721.554804 2372.184734,2724.993669 2385.832666,2731.791272 2396.647223,2741.153186 2404.312372,2751.718853 2408.763712,2762.679265 2410.361463,2768.705257 2411.287904,2779.831302"/>
    <poly id="1104043764" type="aeroway" color="grey" fill="0" layer="-2.00" shape="2375.260218,2522.916387 2382.524810,2528.938813 2387.390200,2533.781777 2390.488630,2538.713164 2393.797468,2545.261546 2396.484769,2551.407173 2397.644542,2556.473479 2397.968760,2562.892390 2397.985300,2569.359480 2397.038008,2576.337686 2393.098655,2586.980364"/>
    <poly id="1104043765" type="aeroway" color="grey" fill="0" layer="-2.00" shape="2706.361604,2737.881281 2721.569992,2733.023454 2731.892519,2732.663165 2741.807618,2733.084431 2752.307024,2736.038826 2764.767796,2742.174958"/>
    <poly id="1104043766" type="aeroway" color="grey" fill="0" layer="-2.00" shape="2754.711156,2719.247477 2728.747304,2729.063418 2706.361604,2737.881281"/>
    <poly id="1104043767" type="aeroway" color="grey" fill="0" layer="-2.00" shape="2603.488364,2800.085636 2706.361604,2737.881281"/>
    <poly id="1104043768" type="aeroway" color="grey" fill="0" layer="-2.00" shape="2466.331719,2707.977001 2474.451813,2693.743956 2483.000353,2678.962061"/>
    <poly id="1104043769" type="aeroway" color="grey" fill="0" layer="-2.00" shape="2515.470708,2620.454906 2523.251842,2605.926588 2531.051662,2592.174567"/>
    <poly id="1104043770" type="aeroway" color="grey" fill="0" layer="-2.00" shape="2663.802821,2668.852596 2656.904786,2681.484056 2649.890017,2694.205708"/>
    <poly id="1104043771" type="aeroway" color="grey" fill="0" layer="-2.00" shape="2911.234203,2481.789693 2917.752075,2466.223460 2920.392468,2453.123272 2919.738910,2439.808500 2916.169413,2426.052628 2908.594207,2413.189159 2899.102781,2403.022731 2887.578515,2395.654626 2872.926292,2390.510405 2859.045488,2389.106175 2845.206496,2391.095941 2831.416711,2397.078642"/>
    <poly id="1104043772" type="aeroway" color="grey" fill="0" layer="-2.00" shape="2823.612348,2384.761626 2831.416711,2397.078642 2838.805401,2409.511718"/>
    <poly id="1104043773" type="aeroway" color="grey" fill="0" layer="-2.00" shape="3017.540096,2264.764888 3001.973898,2291.468887 2996.185020,2301.457339 2991.708895,2309.810050 2985.989019,2319.509241 2956.839684,2371.927890"/>
    <poly id="1104043774" type="aeroway" color="grey" fill="0" layer="-2.00" shape="3022.644343,2316.318285 3015.645156,2313.420339 3009.083924,2311.482110 3000.978997,2310.095346 2991.708895,2309.810050 2980.137888,2311.172670 2968.368985,2315.610528 2955.427469,2323.490604 2831.416711,2397.078642"/>
    <poly id="1104043775" type="aeroway" color="grey" fill="0" layer="-2.00" shape="2619.780297,2592.210103 2615.734503,2599.392934"/>
    <poly id="1104043776" type="aeroway" color="grey" fill="0" layer="-2.00" shape="2831.416711,2397.078642 2792.306840,2420.312624 2745.287630,2452.851605 2700.295412,2492.387781 2665.022004,2531.083197 2619.780297,2592.210103"/>
    <poly id="1104043777" type="aeroway" color="grey" fill="0" layer="-2.00" shape="2908.585126,2234.989660 2901.113278,2248.204804 2894.196241,2261.557334"/>
    <poly id="1104384917" type="aeroway" color="grey" fill="0" layer="-2.00" shape="813.009762,4103.077701 801.890686,4099.800598 790.336499,4098.692151 778.792041,4099.802244 767.673844,4103.092364 757.388265,4108.435381 748.322689,4115.637839"/>
    <poly id="1104384918" type="aeroway" color="grey" fill="0" layer="-2.00" shape="748.322689,4115.637839 732.870119,4121.001425 716.343447,4121.686097 698.792288,4118.035128 683.612398,4109.750694 670.402158,4095.894905"/>
    <poly id="1104384919" type="aeroway" color="grey" fill="0" layer="-2.00" shape="794.526396,3981.872206 801.714719,3968.825055 808.737113,3956.279190"/>
    <poly id="1104384920" type="aeroway" color="grey" fill="0" layer="-2.00" shape="960.375132,4167.277741 950.341406,4153.670149 941.143040,4140.895177"/>
    <poly id="1104384921" type="aeroway" color="grey" fill="0" layer="-2.00" shape="946.368726,4199.046884 955.243888,4183.161021 955.568542,4182.302772 962.234249,4170.227413"/>
    <poly id="1104384922" type="aeroway" color="grey" fill="0" layer="-2.00" shape="1218.710370,4525.991592 1209.514282,4513.338361 1199.114185,4499.369020"/>
    <poly id="1104384923" type="aeroway" color="grey" fill="0" layer="-2.00" shape="1211.505106,4557.253690 1217.584025,4543.921232 1223.212839,4530.838462"/>
    <poly id="1104384924" type="aeroway" color="grey" fill="0" layer="-2.00" shape="1530.615292,4960.276272 1518.583904,4953.515344 1505.755287,4946.065509"/>
    <poly id="1104384925" type="aeroway" color="grey" fill="0" layer="-2.00" shape="1574.688370,5038.876463 1570.975797,5025.377965 1566.163405,5008.731622"/>
    <poly id="1104384926" type="aeroway" color="grey" fill="0" layer="-2.00" shape="1715.086105,5238.146233 1711.939383,5224.207997 1707.764864,5207.076632"/>
    <poly id="1104384928" type="aeroway" color="grey" fill="0" layer="-2.00" shape="1655.116912,4304.291304 1662.075436,4296.006720 1668.701113,4291.564534 1675.348022,4288.098290 1683.940525,4285.084819 1694.511866,4284.465020 1704.729692,4285.302846 1712.782902,4287.753970 1721.654855,4291.892163"/>
    <poly id="1104384929" type="aeroway" color="grey" fill="0" layer="-2.00" shape="2148.918535,5369.020361 2179.586370,5410.993591 2192.075668,5428.454619 2200.607862,5440.384879 2241.560017,5497.483863 2250.583795,5509.596655 2261.592995,5525.401056 2280.021205,5551.097360"/>
    <poly id="1104384930" type="aeroway" color="grey" fill="0" layer="-2.00" shape="2109.369886,5487.842376 2104.036921,5493.410816 2099.609030,5500.332483 2095.590696,5509.578639 2093.780509,5520.006534 2093.411375,5529.695477 2094.856336,5538.030710 2098.003416,5546.943839 2103.706107,5555.825237 2130.292953,5592.535328"/>
    <poly id="1104384931" type="aeroway" color="grey" fill="0" layer="-2.00" shape="2246.266215,5390.198757 2232.528229,5397.025034 2222.835531,5399.685586 2212.510191,5400.301756 2202.402438,5398.729880 2192.883988,5395.708591 2184.063412,5389.761144 2172.023885,5377.142268"/>
    <poly id="1104384932" type="aeroway" color="grey" fill="0" layer="-2.00" shape="2220.280218,5531.282494 2233.787164,5518.269055 2238.782873,5508.888821 2240.759170,5501.609367 2241.560017,5497.483863 2242.048641,5487.915475 2241.097729,5479.940173 2239.703929,5475.719860 2232.904784,5461.738018"/>
    <poly id="1104384933" type="aeroway" color="grey" fill="0" layer="-2.00" shape="2297.222831,5475.650141 2288.496344,5479.474526 2278.678347,5481.526448 2268.461975,5481.420149 2259.449380,5479.712610 2252.119511,5477.019107 2244.770107,5472.750619 2232.904784,5461.738018"/>
    <poly id="1104384934" type="aeroway" color="grey" fill="0" layer="-2.00" shape="2246.266215,5390.198757 2234.030916,5400.522938 2228.536806,5408.456145 2224.889740,5418.418687 2222.824235,5428.006633 2223.189021,5437.686462 2225.239430,5446.613233 2232.904784,5461.738018"/>
    <poly id="1104384935" type="aeroway" color="grey" fill="0" layer="-2.00" shape="2232.904784,5461.738018 2221.266787,5449.324871 2214.408238,5445.172344 2207.440830,5442.474380 2200.607862,5440.384879 2193.315489,5439.987247 2184.567086,5440.583888 2175.959048,5442.265927 2161.116154,5450.614703"/>
    <poly id="1104384936" type="aeroway" color="grey" fill="0" layer="-2.00" shape="2172.023885,5377.142268 2175.987399,5386.111850 2179.018143,5395.148474 2179.716994,5402.527866 2179.586370,5410.993591 2178.112987,5420.086101 2175.662595,5427.870645 2171.991649,5435.903293 2166.857091,5443.588030 2161.116154,5450.614703"/>
    <poly id="1104384937" type="aeroway" color="grey" fill="0" layer="-2.00" shape="2094.935602,5480.910865 2103.206970,5492.267429 2104.036921,5493.410816 2118.497451,5513.409797"/>
    <poly id="1104384939" type="aeroway" color="grey" fill="0" layer="-2.00" shape="1885.554311,5168.011582 1889.128938,5182.122037 1893.242753,5200.230431"/>
    <poly id="1104384940" type="aeroway" color="grey" fill="0" layer="-2.00" shape="1708.761916,4945.164731 1717.506417,4957.313780 1725.456410,4968.263575"/>
    <poly id="1104384941" type="aeroway" color="grey" fill="0" layer="-2.00" shape="1659.404841,4876.735681 1672.517773,4883.727370 1684.673524,4890.287276"/>
    <poly id="1104384942" type="aeroway" color="grey" fill="0" layer="-2.00" shape="1594.581705,4787.145324 1607.859618,4794.267984 1620.288680,4800.924239"/>
    <poly id="1104384943" type="aeroway" color="grey" fill="0" layer="-2.00" shape="1345.370685,4441.508184 1360.114063,4440.347744 1374.756358,4439.077658"/>
    <poly id="1104384944" type="aeroway" color="grey" fill="0" layer="-2.00" shape="1324.007202,4410.547803 1333.353647,4423.631903 1342.689338,4436.583029"/>
    <poly id="1104384945" type="aeroway" color="grey" fill="0" layer="-2.00" shape="1087.081388,4081.880596 1100.850532,4079.611536 1117.412263,4076.653031"/>
    <poly id="1104384946" type="aeroway" color="grey" fill="0" layer="-2.00" shape="1065.435277,4052.377537 1074.971865,4064.660294 1084.482034,4077.731010"/>
    <poly id="1104384947" type="aeroway" color="grey" fill="0" layer="-2.00" shape="931.878081,3867.652193 945.654088,3865.183141 959.901301,3862.697110"/>
    <poly id="1104384948" type="aeroway" color="grey" fill="0" layer="-2.00" shape="793.729849,3675.842301 809.328322,3674.814472 825.073638,3673.929040"/>
    <poly id="1104384949" type="aeroway" color="grey" fill="0" layer="-2.00" shape="772.806146,3646.264267 782.270051,3659.191055 791.132602,3672.602411"/>
    <poly id="1104384950" type="aeroway" color="grey" fill="0" layer="-2.00" shape="709.692971,3558.510937 718.429812,3570.559340 727.886062,3583.586009"/>
    <poly id="130970180" type="natural" color="140,196,107" fill="0" layer="-4.00" shape="3673.123153,1693.086074 4201.814816,1992.661884 4439.315291,2123.257705 4721.230143,2284.703785 4791.544381,2284.640128 4805.737804,2285.677501 4814.975957,2287.828690 4826.520122,2293.224429 4837.577600,2299.613348 4959.806018,2379.547137 4970.419408,2391.221855 4973.520226,2397.218987 4976.876627,2405.609122 4977.936312,2417.521307 4977.610625,2432.589553 4975.327199,2452.218496 4928.920857,2559.305563 4910.130168,2591.192204 4897.179684,2605.925019 4889.676873,2611.540071 4878.596049,2613.681914 4864.031322,2619.382398 4848.481750,2627.612938 4513.192892,3223.600128 4354.834449,3387.637523 4291.394578,3462.477280 4271.785047,3486.321855 4264.958463,3496.754734 4261.271878,3506.705692 4260.470622,3513.127232 4260.134850,3521.295811 4274.246787,3532.927140 4271.384700,3537.621046 4264.893714,3533.906189 4260.227109,3534.839319 4251.192579,3538.155143 4237.252665,3547.365624 4228.579088,3556.500939 4215.249729,3573.413706 4108.325578,3761.456641 4106.036424,3769.260779 4106.394200,3774.070814 4108.126089,3778.564592 4111.986311,3782.888227 4126.145848,3791.745470 4122.717716,3799.075386 4116.236048,3795.371620 4109.807488,3796.026789 4101.049140,3798.174640 4091.746237,3803.246614 4083.651558,3811.498679 4069.208500,3830.699350 3983.356380,3982.157374 3975.314090,4000.625639 3967.362077,4020.546007 3960.619803,4040.795507"/>