<?xml version="1.0" encoding="UTF-8"?>

<!-- generated on 2022-01-31 16:16:23 by Eclipse SUMO duarouter Version 1.9.2
<configuration xmlns:xsi="http://www.w3.org/2001/XMLSchema-instance" xsi:noNamespaceSchemaLocation="http://sumo.dlr.de/xsd/duarouterConfiguration.xsd">

    <input>
        <net-file value="osm.net.xml"/>
        <route-files value="osm.pedestrian.trips.xml"/>
    </input>

    <output>
        <output-file value="osm.pedestrian.rou.xml"/>
        <alternatives-output value="osm.pedestrian.rou.alt.xml"/>
    </output>

    <time>
        <begin value="0"/>
        <end value="3600"/>
    </time>

    <report>
        <no-warnings value="true"/>
        <ignore-errors value="true"/>
        <no-step-log value="true"/>
    </report>

</configuration>
-->

<routes xmlns:xsi="http://www.w3.org/2001/XMLSchema-instance" xsi:noNamespaceSchemaLocation="http://sumo.dlr.de/xsd/routes_file.xsd">
    <vType id="ped_pedestrian" vClass="pedestrian"/>
    <person id="ped0" type="ped_pedestrian" depart="0.00">
        <walk edges="617798471#2 617798471#1 155218283#0 -42750923#4 -42750923#5 617810476#1 617798473 617798474 617795870#1 617795870#0 617795844#1 617795839 617795869#1 617795869#2 617795869#3 617795869#4 617795867#2 617795860#2 617795859#4 617795859#3"/>
    </person>
    <person id="ped1" type="ped_pedestrian" depart="1.15">
        <walk edges="691970091 687869360#0 617795884#1 617795883#1 617795848#0 617795881#1 617795881#0 617795858 617795859#0 617795857 617795859#2 617795859#3 617795859#4 617795860#2 882785077#0 882785078 882785076#3 301016680#0 882785079 340606267#1 340606267#0 42751509#8 42751509#7 -42747696#0 -42747696#1 -42747637#5"/>
    </person>
    <person id="ped3" type="ped_pedestrian" depart="3.45">
        <walk edges="677923183#0 677923191 677913886 224966057#2 250506429#1 262946987#1 42747876 31706460 -42751499 881624922#2 -173542063 -322878930 171140396#1 322878940#1 -908541925#0 908541928 -171135937#1 -881620223 -881620224 171135927#0 -170853048#3"/>
    </person>
    <person id="ped4" type="ped_pedestrian" depart="4.60">
        <walk edges="677913887 677913883 677923186 677913882#1 677913882#2 677913882#3 677913884#0 678235606 677960794#1 677960794#2 678183213 677925170 677923184#1 678184559#2 678184559#3 677923183#1 677923191 677913886 224966057#2 250506429#1 908533349 42748309 250506419#1 250506419#0 42747956 250506433 875753969#0 875753969#1 617795905 828700335 828700333 617795876#2 617795878#1 617795878#2 617795878#3"/>
    </person>
    <person id="ped5" type="ped_pedestrian" depart="5.74">
        <walk edges="173542067#1 171140396#1 322878940#1 -908541925#0 908541928 -171135937#1 -881620223 250506438 -171128424#1 881608063 -881620222 -193177392 -881608061 881608062 -173544358#1 173544360#1 -171245014#0 -500616590#0 -500616529#3 -500616529#4 -500616525#1 -500616593#7"/>
    </person>
    <person id="ped7" type="ped_pedestrian" depart="8.04">
        <walk edges="-42747696#1 -42747637#5 -42747637#6 -42747637#7 -42750923#0 -42750923#1 -42747700#0 -42747700#2 -42747700#3"/>
    </person>
    <person id="ped8" type="ped_pedestrian" depart="9.19">
        <walk edges="500616586#2 -500616586#1 -500616588#2 880274720#2 677423241#1 -677423241#0 171299768 -881974253 -322815283 677424657 82592234#1 250506429#1 262946987#1 42747876 31706460 -42751499 881624922#2 -173542063 -322878930 171140396#1 322878940#1 -908541925#0 908541928 -171135937#1 881620223"/>
    </person>
    <person id="ped9" type="ped_pedestrian" depart="10.34">
        <walk edges="262946969#6 262946969#3 262946965#1 262946965#0 677423247#1 677423246 250506429#3 250506429#2 250506429#1 262946962#3 262946962#2 -535063429#1 -822812612 -500616596#1 -500616594#0 500616594#1"/>
    </person>
    <person id="ped10" type="ped_pedestrian" depart="11.49">
        <walk edges="617795883#0 617795881#4 617795882#1 42748061#0 250506423#1 250506423#0 250506437 250506426 340606253 887523754 5170999 881624922#4 881624922#2 -173542063 -322878930 171140396#1 322878940#1 -908541925#0 908541928 -171135937#1 -881620223 250506438 -171128424#1 881608063 -881620222 -193177392 -881608061 -173544427#1 173544428#1 -173544357"/>
    </person>
    <person id="ped11" type="ped_pedestrian" depart="12.64">
        <walk edges="-42750923#5 -669737709#0 -669737709#1 -669737709#2 -669737709#3 -669737709#4 -884247586"/>
    </person>
    <person id="ped12" type="ped_pedestrian" depart="13.79">
        <walk edges="590396282#2 -590396282#1 -500616566#0 -500616566#1 500616566#2 -500616595#3 -500616595#2 500616595#0 -500616596#2 -500616596#1 -822812612 -535063429#1 262946962#2 262946962#3 262946987#1 42747876 31706460 887526442#0 887526442#1 887526440#0 887526440#1 250506420#1"/>
    </person>
    <person id="ped13" type="ped_pedestrian" depart="14.94">
        <walk edges="-881620218 881620218 -322878932 887526440#1 887526440#0 887526442#1 887526442#0 881624921 887526441 250506419#1 250506419#0 42747956 250506433 875753969#0 875753969#1 617795905 828700335 617795873#4 617795866#4 617795866#3 617795866#2 617795866#1 617795866#0 617795869#4 617795867#2 882785077#0 882785078 828700334#0"/>
    </person>
    <person id="ped15" type="ped_pedestrian" depart="17.23">
        <walk edges="-500616600#0 -500616628#5 -500616628#4 -500616628#3 -500616628#2 -500616644#0 -171128421#5 173537055 -171135937#1 908541928 -908541925#0 322878940#1 171140396#1 -322878930 -173542063 881624922#2 881624922#4 5170999 887523754 340606253 250506426 250506437 250506423#0 250506423#1 340606270#0 340606270#2 340606270#3 322744967 42748183 42748184 849265773#1 882785080 617798464#8"/>
    </person>
    <person id="ped16" type="ped_pedestrian" depart="18.38">
        <walk edges="-500616595#3 -500616595#2 500616595#0 -500616596#2 -500616596#1 -822812612 -535063429#1 262946962#2 262946962#3 262946987#1"/>
    </person>
    <person id="ped18" type="ped_pedestrian" depart="20.68">
        <walk edges="500616595#3 -500616595#2 500616595#0 -500616596#2 -500616596#1 -822812612 -535063429#1 262946962#2 262946962#3 908533349 42748309 250506419#1 250506419#0 42747956 250506433 875753969#0 875753969#1 617795905 828700335 617795873#4 617795866#4 617795866#3"/>
    </person>
    <person id="ped19" type="ped_pedestrian" depart="21.83">
        <walk edges="-669737709#0 -669737709#1 -669737709#2 669737709#3 669737709#4 884247586 820461469 42747648#0 42747648#1 42747648#2 500616521 -171299761#3 -171273554#5 171273554#4 -171273554#3"/>
    </person>
    <person id="ped20" type="ped_pedestrian" depart="22.98">
        <walk edges="171143819 -881620219"/>
    </person>
    <person id="ped21" type="ped_pedestrian" depart="24.13">
        <walk edges="678761498 250506427 42747955#0 42747955#1 42747956 250506419#0 250506419#1 887526441 881624921 5170998 881624922#2 881624922#1 881624922#0 250506420#3 171140397"/>
    </person>
    <person id="ped22" type="ped_pedestrian" depart="25.28">
        <walk edges="617795840 617795841 617795844#1 617795870#0 678697945#2 678697945#3 678697945#4 340606259 42747955#0 42747955#1 42747956 250506419#0 250506419#1 42748309 908533349 322744963#1"/>
    </person>
    <person id="ped23" type="ped_pedestrian" depart="26.42">
        <walk edges="500616628#6 -500616628#5 -500616628#4 -500616628#3 -500616628#2 -500616644#0 -171128421#5 173537055 -171135937#1 908541928 -908541925#0 322878940#1 171140396#1 -322878930 -173542063 881624922#2 5170998 881624921 887526441 250506419#1 250506419#0 42747956 42747955#1 679469292#1 679469292#0 783190965#0"/>
    </person>
    <person id="ped24" type="ped_pedestrian" depart="27.57">
        <walk edges="908541925#1 908541928 -171135937#1 -881620223 250506438 -171128424#1 881608063 -881620222 -193177392 -881608061 881608062 -173544358#1 173544360#1 -171245014#0 -500616590#0 -500616529#3 -500616529#4 -500616529#5 500616526#0"/>
    </person>
    <person id="ped25" type="ped_pedestrian" depart="28.72">
        <walk edges="-42747695#0 -42747695#1 -884247586 -884247585 -170848626#0 42747648#3 500616521 -171299761#4 -500616592#2 -500616592#1 500616529#1 -500616529#2 -500616590#0 -171245014#0 173544360#1 -173544358#1"/>
    </person>
    <person id="ped26" type="ped_pedestrian" depart="29.87">
        <walk edges="677425160 82592221#2 82592221#1 82592221#0 322744954#0 262946964 82592229#1 262946969#3 82592241#1 -82592241#2 322878939#9"/>
    </person>
    <person id="ped27" type="ped_pedestrian" depart="31.02">
        <walk edges="908533354#1 -908533355#0 262946962#2 -535063429#1 -822812612 -500616596#1 -500616594#0 -500616594#1 500616594#2 500616579#0"/>
    </person>
    <person id="ped28" type="ped_pedestrian" depart="32.17">
        <walk edges="-171128424#0 250506438 -881620223 -171135937#1 908541928 -908541925#0 322878940#1 171140396#1 -322878930 -173542063 881624922#2 5170998 881624921 887526441 250506419#1 250506419#0 42747956 42747955#1 42747955#0 340606259 678697945#4 678697945#3 678697945#2 617795870#1 617798474 617798473 617810476#1 -42750923#5 42750923#4 42750923#3 617798471#3 617798472#3 617797128 617797129"/>
    </person>
    <person id="ped29" type="ped_pedestrian" depart="33.32">
        <walk edges="617795865#1 617795865#0 617795866#4 617795873#4 828700335 617795905 875753969#1 875753969#0 250506433 42747956 250506419#0 250506419#1 42748309 908533349 250506429#1 82592234#1 677424657 -322815283 -881974253 171299768 -677423241#0 677423241#1 880274720#2 -500616588#2 -500616588#1 500616588#0"/>
    </person>
    <person id="ped31" type="ped_pedestrian" depart="35.62">
        <walk edges="-500616523#0 -500616586#1 -500616588#2 880274720#2 677423241#1 -677423241#0 171299768 -881974253 -322815283 677424657 82592234#1 250506429#1 908533349 42748309 250506419#1 250506419#0 42747956 250506433 875753969#0 875753969#1 617795905 828700335 828700333 340606266 340606273 340606261#0 340606261#1"/>
    </person>
    <person id="ped32" type="ped_pedestrian" depart="36.76">
        <walk edges="678698625#1 340606259 42747955#0 42747955#1 42747956 250506419#0 250506419#1 42748309 908533349 250506429#1 82592234#1 677424657 -322815283 -881974253 171299768 -678403802 -500319558 -880274721#1 -880274721#0"/>
    </person>
    <person id="ped34" type="ped_pedestrian" depart="39.06">
        <walk edges="617802357#2 617802366#1 617798465 617798470#1 617798468#1 155218283#1 155218283#0 -42750923#4 -42750923#5 -669737709#0 -669737709#1 -669737709#2 669737709#3 669737709#4 884247586 820461469 42747648#0 42747648#1 42747648#2 500616521 -171299761#4 -500616592#2 -500616592#1 500616529#1 -500616529#2 500616590#1"/>
    </person>
    <person id="ped35" type="ped_pedestrian" depart="40.21">
        <walk edges="669737709#1 669737709#2 669737709#3 669737709#4 884247586 820461469 42747648#0 42747648#1 42747648#2 500616521 -171299761#4 -500616592#2 -500616592#1 -884247584#0 -884247584#1 500616550 500616579#2"/>
    </person>
    <person id="ped36" type="ped_pedestrian" depart="41.36">
        <walk edges="-155218281 42747700#3 42747699#1 -42750923#5 -669737709#0 -669737709#1 -669737709#2 669737709#3 669737709#4 884247586 820461469 42747648#0 42747648#1 42747648#2 500616521 -171299761#3 -171273554#5 171273554#4 171273554#3 -171273555 171273553#0"/>
    </person>
    <person id="ped37" type="ped_pedestrian" depart="42.51">
        <walk edges="-171140397 250506420#3 881624922#0 881624922#1 881624922#2 -42751499 31706460 42747876 262946987#1 250506429#1 82592234#1 82592233#0"/>
    </person>
    <person id="ped38" type="ped_pedestrian" depart="43.66">
        <walk edges="679469292#1 42747955#1 42747956 250506419#0 250506419#1 42748309 908533349 250506429#1 224966057#2 677913886 677923191 677923183#1 678188554 678184560#3 678184560#2 678184560#1 678184560#0 677988349#3"/>
    </person>
    <person id="ped39" type="ped_pedestrian" depart="44.81">
        <walk edges="679469292#0 679469292#1 42747955#0 340606259 678698625#1 617795838#1 617795843#1 617795871 617795873#1 617795873#2 617795863 617795865#1 617795866#2 617795866#1 617795866#0 617795869#4 617795867#2 617795860#2 849265771 42748096 42751321#2 849265779#1"/>
    </person>
    <person id="ped40" type="ped_pedestrian" depart="45.95">
        <walk edges="-42747637#3 -42747637#4 42747696#1 42747696#0 42751509#7 42751509#8 340606267#0 340606267#1 882785079 301016680#0 882785076#3 882785078 882785077#0 617795860#2 849265771 42748096 42751321#2 42751321#1"/>
    </person>
    <person id="ped41" type="ped_pedestrian" depart="47.10">
        <walk edges="-322819174 171273554#4 -171273554#5 -171299761#3 500616521 42747648#2 42747648#1 42747648#0 820461469 884247586 669737709#4 669737709#3 -669737709#2 -669737709#1 -669737709#0 -42750923#5 -42750923#4 155218283#0 155218283#1 617798468#1 617798470#1 617798465 617802366#1 617802357#1 617802355#1"/>
    </person>
    <person id="ped42" type="ped_pedestrian" depart="48.25">
        <walk edges="42748096 849265771 828700332#1 828700333 828700335 617795905 875753969#1 875753969#0 250506433 42747956 250506419#0 250506419#1 42748309 908533349 262946962#3 262946962#2 -535063429#1 -822812612 -500616596#1 -500616594#0 -500616594#1 500616594#2 500616594#3 -500616593#6 500616593#7"/>
    </person>
    <person id="ped43" type="ped_pedestrian" depart="49.40">
        <walk edges="-881608060 -881608061 -193177392 -881620222 881608063 -171128424#1 250506438 -881620223 -171135937#1 908541928 -908541925#0 322878940#1 171140396#1 -322878930 -173542063 881624922#2 5170998 881624921 887526441 250506419#1 250506419#0 42747956 42747955#1 42747955#0 340606259 678697945#4 678697945#3 678697945#2"/>
    </person>
    <person id="ped45" type="ped_pedestrian" depart="51.70">
        <walk edges="500616590#1 -500616529#2 500616529#1 -500616592#1 -500616592#2 -171299761#4 500616521 42747648#2 42747648#1 42747648#0 820461469 884247586 669737709#4 669737709#3 1009203149#1 617798464#8 617798464#9"/>
    </person>
    <person id="ped46" type="ped_pedestrian" depart="52.85">
        <walk edges="-500616644#2 -500616644#1 -500616644#0 -171128421#5 173537055 171135937#1"/>
    </person>
    <person id="ped47" type="ped_pedestrian" depart="54.00">
        <walk edges="340606265 678761498 250506427 42747955#0 42747955#1 42747956 250506419#0 250506419#1 42748309 908533349 250506429#1 82592234#1 677424657 -322815283 -881974253 171299768 -677423241#0 677423241#1 880274720#2 -880274720#1 880274720#0 500616550"/>
    </person>
    <person id="ped48" type="ped_pedestrian" depart="55.15">
        <walk edges="171299950 881974258#1 881974258#0 -881974257 -678235610 -881974253 -322815283 677424657 82592234#1 250506429#1 262946987#1 42747876 31706460 -42751499 881624922#2 -173542063 -322878930 171140396#1 322878940#1 -908541925#0 908541928 -171135937#1 173537055 -171128421#5 -500616644#0 -500616628#1 500616630#2"/>
    </person>
    <person id="ped50" type="ped_pedestrian" depart="57.44">
        <walk edges="-669737709#0 -669737709#1 820461465"/>
    </person>
    <person id="ped51" type="ped_pedestrian" depart="58.59">
        <walk edges="678235607 678235608 677913884#1 678235606 677960794#1 677960794#2 678183213 677925170 677923184#1 678184559#2 678184559#3 677923183#1 677923191 677913886 224966057#2 250506429#1 908533349 42748309 250506419#1 -322878928#1 -322878928#2"/>
    </person>
    <person id="ped52" type="ped_pedestrian" depart="59.74">
        <walk edges="-677424372 678403800 -82592233#1 -82592233#0 82592234#1 250506429#1 908533349 42748309 250506419#1 250506419#0 42747956 250506433 875753969#0 875753969#1 617795905 828700335 828700333 617795876#2 617795853#0 617795853#1 617795853#2"/>
    </person>
    <person id="ped54" type="ped_pedestrian" depart="62.04">
        <walk edges="828700333 340606266 340606273 340606261#0 340606261#1 340606261#2 340606261#3 340606261#4 340606271 5170999 881624922#4 881624922#2 -173542063 -322878930 171140396#1 322878940#1 -908541925#0 908541928 -171135937#1 173537055 -171128421#5 -500616644#0 -500616628#2 -500616628#3 -500616628#4 -500616628#5 -500616628#6 500616628#7 -500616621#1 500616621#2"/>
    </person>
    <person id="ped55" type="ped_pedestrian" depart="63.19">
        <walk edges="42747955#1 42747956 250506419#0 250506419#1 42748309 908533349 250506429#1 250506429#2 250506429#3 677423246 677423247#1"/>
    </person>
    <person id="ped56" type="ped_pedestrian" depart="64.34">
        <walk edges="-42747700#3 42747699#1 -42750923#5 -669737709#0 -669737709#1 -669737709#2 669737709#3 669737709#4 884247586 820461469 42747648#0 -322878949#0 322878949#1"/>
    </person>
    <person id="ped57" type="ped_pedestrian" depart="65.49">
        <walk edges="617798464#8 882785080 849265773#1 42748184 42748183 322744967 322744972#2 322744972#1 617795854#0 617795859#0 617795857"/>
    </person>
    <person id="ped58" type="ped_pedestrian" depart="66.63">
        <walk edges="882785080 617798464#8 617798459 617798458#1 -669737709#0 -42750923#5 -42750923#4 155218283#0 -155218283#1 42747700#0 -42750923#1"/>
    </person>
    <person id="ped59" type="ped_pedestrian" depart="67.78">
        <walk edges="322878939#8 322878939#7 322878939#6 322878939#5 322878939#4 322878939#3 322878939#2 322878939#1 322878939#0 322878948 -82592231#1 -82592231#2 262946965#0 677423247#1 677423246 250506429#3 250506429#2 250506429#1 262946962#3 -908533355#0"/>
    </person>
    <person id="ped60" type="ped_pedestrian" depart="68.93">
        <walk edges="340606273 340606266 828700333 828700335 617795905 875753969#1 875753969#0 250506433 42747956 250506419#0 250506419#1 42748309 908533349 250506429#1 82592234#1 -82592233#0 -82592233#1 678398325"/>
    </person>
    <person id="ped61" type="ped_pedestrian" depart="70.08">
        <walk edges="500616593#8 -500616524#1 -500616529#3 -500616590#0 -171245014#0 -173544359#1 -173544359#0 -173544357 -173544816#1 -173544816#0"/>
    </person>
    <person id="ped62" type="ped_pedestrian" depart="71.23">
        <walk edges="881608063 -171128424#1 250506438 -881620223 -171135937#1 908541928 -908541925#0 322878940#1 171140396#1 -322878930 -173542063 881624922#2 -42751499 31706460 42747876 262946987#1 617802337#0 617802339#2 322744963#1 322744963#0 322744954#4 322744954#3 322744954#2 677428369#1 677424658 82592221#1 82592221#2"/>
    </person>
    <person id="ped63" type="ped_pedestrian" depart="72.38">
        <walk edges="678233694 677988349#6 677988349#5 677988349#4 677988349#3 678184560#0 678184560#1 678184560#2 678184560#3 678188554 677923183#1 677923191 677913886 224966057#2 250506429#1 262946962#3 262946962#2 -535063429#1 -822812612 -500616596#1 -500616596#2 -500616596#3"/>
    </person>
    <person id="ped64" type="ped_pedestrian" depart="73.53">
        <walk edges="-881608060 -173544358#1 173544360#1 -171245014#0 -500616590#0 -500616529#2 500616529#1 -884247584#0 -884247584#1 880274720#0 -880274720#1 880274720#2 677423241#1 -677423241#0 171299768 -881974253 -322815283 677424657 82592234#1 250506429#2 250506429#3 677423246"/>
    </person>
    <person id="ped66" type="ped_pedestrian" depart="75.83">
        <walk edges="881608063 -171128424#1 250506438 -881620223 173537055 -171128421#5 -500616644#0 -500616644#1 -500616623#7 -500616623#8 500616623#9"/>
    </person>
    <person id="ped67" type="ped_pedestrian" depart="76.97">
        <walk edges="500616522#1 -500616579#1 -500616579#2 -500616588#1 -500616588#2 880274720#2 677423241#1 -677423241#0 171299768 -881974253 -322815283 677424657 82592234#1 224966057#2 677913886 677923191 677923183#1 678188554 678184560#3 678184560#2 678184560#1 678184560#0 677988349#2 677988349#1 678233704 678233703"/>
    </person>
    <person id="ped69" type="ped_pedestrian" depart="79.27">
        <walk edges="500616644#2 -500616644#1 -500616644#0 -171128421#5 173537055 -171135937#1 908541928 -908541925#0 322878940#1 171140396#1 -322878930 -173542063 881624922#2 881624922#4 5170999 340606271 340606261#4 340606261#3 340606261#2 340606261#1 340606261#0 340606273 340606266 617795876#2 617795853#0 617795853#1 617795853#2 617795850#0 617795849 617795859#2 617795857 617795859#1"/>
    </person>
    <person id="ped70" type="ped_pedestrian" depart="80.42">
        <walk edges="-677423245 880274720#2 -500616588#2 -500616588#1 -500616579#2 -500616579#1 -500616579#0 500616594#3 -500616593#6 -500616527#2"/>
    </person>
    <person id="ped72" type="ped_pedestrian" depart="82.72">
        <walk edges="-677424657 82592234#1 250506429#1 262946962#3 262946962#2 262946962#1 387938687#1 387938687#0 322744965#0"/>
    </person>
    <person id="ped73" type="ped_pedestrian" depart="83.87">
        <walk edges="617795854#1 617795854#0 617795859#0 617795857 617795859#2 617795849 617795850#0 617795853#2 617795853#1 617795853#0 617795876#2 340606266 340606273 340606261#0 340606261#1 340606261#2 340606261#3 340606261#4 340606271 5170999 881624922#4 881624922#2 -173542063 -322878930 171140396#1 322878940#1 -908541925#0 908541928 -171135937#1 -881620223 -881620224 171135927#0 -879786366 170853048#3"/>
    </person>
    <person id="ped74" type="ped_pedestrian" depart="85.02">
        <walk edges="-322878930 -173542063 881624922#2 881624922#4 5170999 887523754 340606253 250506426 250506437 250506423#0 250506423#1 340606270#0 340606270#2 340606270#3 322744967 42748183 42748184 849265773#1 882785080 42751509#1 42747694#0"/>
    </person>
    <person id="ped76" type="ped_pedestrian" depart="87.31">
        <walk edges="-881608060 -173544358#1 173544360#1 -171245014#0 -500616590#0 -500616529#2 500616529#1 -884247584#0 -884247584#1 880274720#0 -880274720#1 880274720#2 677423241#1 -677423241#0 171299768 -881974253 -322815283 677424657 82592234#1 250506429#2 250506429#3 677423246 677423247#1 262946965#0 -82592231#2 -82592243#1 82592243#0"/>
    </person>
    <person id="ped77" type="ped_pedestrian" depart="88.46">
        <walk edges="687868369#0 687869025 687869024 687869357#0 687869360#1 687869360#0 617795884#1 617795883#1 617795883#0 617795881#4 617795882#1 42748061#1 340606273 340606261#0 340606261#1 340606261#2 849265783 679469294#0"/>
    </person>
    <person id="ped78" type="ped_pedestrian" depart="89.61">
        <walk edges="677988349#6 677988349#5 677988349#4 677988349#3 678184560#0 678184560#1 678184560#2 678184560#3 678188554 677923183#1 677923191 677913886 224966057#2 250506429#1 262946987#1 42747876 887526443 887526445 42751496#0 42751496#1 250506426 250506437 250506423#0 250506423#1 42748061#0 617795882#1"/>
    </person>
    <person id="ped79" type="ped_pedestrian" depart="90.76">
        <walk edges="617795837 678698625#1 340606259 42747955#0 42747955#1 42747956 250506419#0 250506419#1 887526441 881624921 5170998 881624922#2 -173542063 -322878930 171140396#1 322878940#1 -908541925#0 908541928 -171135937#1 173537055 -171128421#5 171128421#4 -171128421#3 -171128421#2 -171128421#1"/>
    </person>
    <person id="ped80" type="ped_pedestrian" depart="91.91">
        <walk edges="677960794#1 677960794#2 678183213 677925170 677923184#1 678184559#2 678184559#3 677923183#1 677923191 677913886 224966057#2 250506429#1 262946987#1 42747876 31706460 -42751499 881624922#2 -173542063 -322878930 171140396#1 322878940#1 -908541925#0 908541928 -171135937#1 -881620223 -881620224 171135927#0 -879786366 170853048#2"/>
    </person>
    <person id="ped81" type="ped_pedestrian" depart="93.06">
        <walk edges="617795848#2 617795881#0 617795858 617795859#0 617795857 617795859#2 617795849 617795850#0 617795853#2 617795853#1 617795853#0 617795876#2 828700333 828700335 617795905 678698624 828700337"/>
    </person>
    <person id="ped82" type="ped_pedestrian" depart="94.21">
        <walk edges="-500616574#1 -500616594#1 500616594#2 500616594#3 -500616593#6 -500616593#7 -500616525#0"/>
    </person>
    <person id="ped83" type="ped_pedestrian" depart="95.36">
        <walk edges="535068843#0 387938687#0 387938687#1 262946962#1 262946962#2 262946962#3 250506429#1 82592234#1 677424657 -322815283 -881974253 171299768 -678403802 -500319558 -880274721#1"/>
    </person>
    <person id="ped84" type="ped_pedestrian" depart="96.51">
        <walk edges="42751509#1 617798464#8 617798459 617798458#1 -669737709#0 -42750923#5 42747699#1 -42747700#3 155218281 820461462"/>
    </person>
    <person id="ped85" type="ped_pedestrian" depart="97.65">
        <walk edges="-170848626#1 -170848626#0 -884247585 -884247586 -42747695#1 -42747695#0 42751509#4 42751509#5 42751509#6 42747696#0 617802364#4"/>
    </person>
    <person id="ped86" type="ped_pedestrian" depart="98.80">
        <walk edges="-322878937#0 617795895#0 617795897#0 617795886#0 887526442#0 881624921 887526441 250506419#1 250506419#0 42747956 42747955#1 42747955#0 340606259 678697945#4 678697945#3 678697945#2 617795870#1 617795906#1 687869361#0 687869026#1"/>
    </person>
    <person id="ped87" type="ped_pedestrian" depart="99.95">
        <walk edges="171135927#0 -881620224 -881620223 -171135937#1 908541928 -908541925#0 322878940#1 171140396#1 -322878930 -173542063 881624922#2 5170998 881624921 887526441 250506419#1 250506419#0 42747956 42747955#1 679469292#1 679469292#0 -783190965#0 783190966"/>
    </person>
    <person id="ped88" type="ped_pedestrian" depart="101.10">
        <walk edges="677428370#1 677428369#1 322744954#2 322744954#3 322744954#4 322744963#0 82592240 250506429#2 82592234#1 677424657 -322815283 -881974253 678235610"/>
    </person>
    <person id="ped89" type="ped_pedestrian" depart="102.25">
        <walk edges="669737709#4 669737709#3 -669737709#2 -669737709#1 -669737709#0 617810476#1 617798473 617798474 617795906#1 687869361#0 687869026#1 687869027"/>
    </person>
    <person id="ped90" type="ped_pedestrian" depart="103.40">
        <walk edges="-500616593#5 500616594#3 500616594#2 -500616594#1 -500616594#0 -500616596#1 -822812612 -535063429#1 262946962#2 262946962#3 250506429#1 82592234#1 -82592233#0 82592233#1"/>
    </person>
    <person id="ped91" type="ped_pedestrian" depart="104.55">
        <walk edges="678403800 -82592233#1 -82592233#0 82592234#1 250506429#1 262946987#1 42747876 31706460 -42751499 881624922#2"/>
    </person>
    <person id="ped92" type="ped_pedestrian" depart="105.70">
        <walk edges="677923184#1 678184559#2 678184559#3 677923183#1 677923191 677913886 224966057#2 250506429#1 262946987#1 42747876 887526443 887526445 42751496#0 42751496#1 250506426 250506437 250506423#0 250506423#1 340606270#0 617795883#1 617795884#1 687869360#0 687869360#1 687869357#0 687869024 687869025 687868369#1"/>
    </person>
    <person id="ped93" type="ped_pedestrian" depart="106.85">
        <walk edges="-171245016#0 -500718589 -171245015#0 -170853048#2 -879786366 171135927#0 -881620224 -881620223 -171135937#1 908541928 -908541925#0 322878940#1 171140396#1 -322878930 -173542063 881624922#2 5170998 881624921 887526441 250506419#1 250506419#0 42747956 42747955#1 42747955#0 340606259 678697945#4 678697945#3 678697945#2 617795870#1 617798474 617798473 617810476#1 -42750923#5 -42750923#4 155218283#0 617798471#1 617798471#2"/>
    </person>
    <person id="ped94" type="ped_pedestrian" depart="107.99">
        <walk edges="677913883 677923186 677913882#1 677913882#2 677913882#3 677913884#0 678235606 677960794#1 677960794#2 678183213 677925170 677923184#1 678184559#1 678184560#2 678400306"/>
    </person>
    <person id="ped95" type="ped_pedestrian" depart="109.14">
        <walk edges="677923184#1 678184559#2 678184559#3 677923183#1 677923191 677913886 224966057#2 250506429#1 262946987#1 42747876 31706460 887526442#0 887526442#1 887526440#0 887526440#1 -322878932 881620218 -881620218"/>
    </person>
    <person id="ped96" type="ped_pedestrian" depart="110.29">
        <walk edges="678697945#2 678697945#3 678697945#4 340606259 42747955#0 42747955#1 42747956 250506419#0 250506419#1 42748309 908533349 250506429#1 224966057#2 677913886 677923191 677923183#1 678188554 678184560#3 678184560#2 678184560#1 678184560#0 677988349#2 677988349#1 677988349#0 678233707 678234116"/>
    </person>
    <person id="ped97" type="ped_pedestrian" depart="111.44">
        <walk edges="-171245015#1 -171128421#3 171128421#4 -500616644#0 -500616644#1 -500616623#7 -500616630#0"/>
    </person>
    <person id="ped98" type="ped_pedestrian" depart="112.59">
        <walk edges="881608059 -171128426 -171135933#0 170853048#0 -170853048#1 -170853048#2 -879786366 171135927#0 -881620224 -881620223 -171135937#1 908541928 -908541925#0"/>
    </person>
    <person id="ped99" type="ped_pedestrian" depart="113.74">
        <walk edges="882785076#3 882785078 882785077#0 617795867#2 617795869#4 617795866#0 617795866#1 617795866#2 617795866#3 617795866#4 617795873#4 828700335 617795905 875753969#1 875753969#0 250506433 42747956 250506419#0 250506419#1 42748309 908533349 250506429#1 82592234#1 677424657 -322815283 -881974253 171299768 -677423241#0 677423241#1 880274720#2 -500616588#2 -500616586#1 500616586#2"/>
    </person>
    <person id="ped100" type="ped_pedestrian" depart="114.89">
        <walk edges="828700337 250506419#0 250506419#1 887526441 881624921 5170998 881624922#2 -173542063 -322878930 171140396#1 322878940#1 -908541925#0 908541928 -171135937#1 -881620223 250506438 -171128424#1 881608063 -881620222 -193177392 -881608061 881608062 -173544358#1 173544360#1 -171245014#0 -500616590#0 -500616529#3 -500616529#4 -500616525#1 -500616525#0"/>
    </person>
    <person id="ped101" type="ped_pedestrian" depart="116.04">
        <walk edges="875753969#1 875753969#0 250506433 42747956 250506419#0 250506419#1 887526441 881624921 5170998 881624922#2 -173542063 -322878930 171140396#1 322878940#1 -908541925#0 908541928 -171135937#1 -881620223 250506438 -171128424#1 881608063 -881620222 -193177392 -881608061"/>
    </person>