<?xml version="1.0" encoding="UTF-8"?>

<!-- generated on 2022-11-13 14:22:01 by Eclipse SUMO duarouter Version 1.11.0
<configuration xmlns:xsi="http://www.w3.org/2001/XMLSchema-instance" xsi:noNamespaceSchemaLocation="http://sumo.dlr.de/xsd/duarouterConfiguration.xsd">

    <input>
        <net-file value="osm.net.xml"/>
        <route-files value="trips.trips.xml"/>
    </input>

    <output>
        <output-file value="osm.rou.xml"/>
        <alternatives-output value="osm.rou.alt.xml"/>
    </output>

</configuration>
-->

<routes xmlns:xsi="http://www.w3.org/2001/XMLSchema-instance" >
    <vehicle id="C0" depart="0.00">
        <route edges="5170999 887523754 340606253 250506426 250506437 250506423#0 250506423#1 340606270#0 340606270#1 340606270#2 340606270#3 322744967#0 322744967#1 42748183 42748184 849265773#1 882785080 42751501 42751509#0 42751509#1 42751509#2 42751509#3 42751509#4 42747637#0 42747637#1 42747637#2 42747637#3"/>
    </vehicle>
    <vehicle id="C1" depart="0.00">
        <route edges="262946965#0 262946965#1 262946965#2 24821966#0 24821966#1 1069300697#0 1069300697#1 31706453 262946962#0 262946962#1 262946962#2 262946962#3 262946962#4 262946987#0 262946987#1 556616223 556616225 908533352 908533351 31706459 42747876 31706460 669738788 887526442#0 887526442#1 887526440#0 887526440#1 250506420#0"/>
    </vehicle>
    <vehicle id="C2" depart="0.00">
        <route edges="677423246 677423247#0 677423247#1 82592227 262946964 322744954#0 322744954#1 322744954#2 322744954#3 322744954#4 82592219 322744961 677428366 677428365 677423248 535063427"/>
    </vehicle>
    <vehicle id="C3" depart="0.00">
        <route edges="42747696#1 42747696#2 -42747637#4 -42747637#3"/>
    </vehicle>
    <vehicle id="C4" depart="0.00">
        <route edges="24821965 926993944 1058539145 1058539146#0 1058539146#1 82592241#0 262946969#0 262946969#1 926993943 722085187 23604841#0 42747698 42750922#0 42747699#0 -42747700#3 -42747700#2 -42747700#1 -42747700#0 42750923#2 42750923#3"/>
    </vehicle>
    <vehicle id="C5" depart="0.00">
        <route edges="-42747637#1 -42747637#0 42747637#0 42747637#1 42747637#2 42747637#3 42747637#4 -42747696#2 -42747696#1 -42747696#0 1107078019#2 1107078019#3 340606267#0 340606267#1 42751506 5170997 882785079 301016680#0 301016680#1 301016680#2 301016680#3 828700337 250506419#0 250506419#1 887526441 881624921 887526442#0 887526442#1 887526440#0 887526440#1 250506420#0 250506420#1 171140399#0"/>
    </vehicle>
    <vehicle id="C6" depart="0.00">
        <route edges="5170996 881624922#0 881624922#1 881624922#2 881624922#3 881624922#4 881624922#5 617999599 828700333 42751323 42751322 828700336 882785076#0 882785076#1 882785076#2 882785077#1 882785077#2 42751325 42751324"/>
    </vehicle>
    <vehicle id="C7" depart="0.00">
        <route edges="24821966#0 24821966#1 1069300697#0 1069300697#1 31706453 262946962#0 262946962#1 262946962#2 262946962#3 262946962#4 262946987#0 262946987#1 556616223 556616225 908533352 908533351 31706459 42747876 31706460 669738788 -42751499 -42751500 -5170998 881624922#4 881624922#5 617999599 828700333 42751323 42751322 828700336 828700335 678698625#0 678698625#1 340606259 250506427 678761498 42751314 42751326 878618789 61730115 340606281 42751503 42751508"/>
    </vehicle>
    <vehicle id="C8" depart="0.00">
        <route edges="685020884 82592224 250506429#0 250506429#1 250506429#2 250506429#3 677423246 677423247#0 677423247#1 262946965#0 262946965#1 1058539143#1 1058539144#0 1058539144#1 262946969#0 262946969#1 926993943 722085187 23604841#0 42747698 42750922#0 42747699#0 -42747700#3 -42747700#2 -155218283#1 -155218283#0"/>
    </vehicle>
    <vehicle id="C9" depart="0.00">
        <route edges="679059342 262947136 250504121 42751315#0 42751315#1 678697942#0 678697942#1 250506423#0 250506423#1 340606270#0 340606270#1 340606270#2 340606270#3 322744967#0 322744967#1 42748183 42748184 849265773#1 882785080 42751501 42751509#0 1009203149#0 1009203149#1 -669737709#2 -669737709#1 -669737709#0 -669737711 -42750923#5 -42750923#4 -42750923#3 -42750923#2 -42750923#1 -42750923#0 -42750924 -42747637#8 -42747637#7 -42747637#6 -42747637#5 -42747696#2 -42747696#1 -42747696#0 1107078019#2 42747538 42750921#0 617802357#0 617802357#1"/>
    </vehicle>
    <vehicle id="C10" depart="0.00">
        <route edges="322744973#0 322744973#1 322744973#2 1058539141#1 1058539141#2 1058539141#3 1058539142 1058539143#0 1058539143#1 1058539144#0 1058539144#1"/>
    </vehicle>
    <vehicle id="C11" depart="0.00">
        <route edges="882785081 42751321#0 42751321#1 42751321#2 42748096 322744972#0 322744972#1 322744972#2 322744967#0 322744967#1 250506422 42751317#0 42751317#1 322744971 42751312 678697945#0 678697945#1 678697945#2 678697945#3 678697945#4 340606259 42747955#0 42747955#1 42747956 250506419#0 250506419#1 42748309 42748335 908533349 908533350 42748334 556616224 556616222#0 556616222#1 250506431 322744973#0 322744973#1 322744973#2"/>
    </vehicle>
    <vehicle id="C12" depart="0.00">
        <route edges="-669737709#1 -669737709#0 -669737711 -42750923#5 42750923#5 669737711 669737709#0 669737709#1 669737709#2 669737709#3 669737709#4 -669737709#4"/>
    </vehicle>
    <vehicle id="C13" depart="0.00">
        <route edges="42751319 678697942#0 678697942#1 250506423#0 250506423#1 42748061#0 42748061#1 340606266 828700331 828700333 42751323 42751322 828700337 250506419#0 250506419#1 887526441 881624921 887526442#0 887526442#1 887526440#0"/>
    </vehicle>
    <vehicle id="C14" depart="0.00">
        <route edges="340606270#1 340606270#2 340606270#3 322744967#0 322744967#1 250506422 42751317#0 42751317#1 42747878 42748098 679059342 42751355"/>
    </vehicle>
    <vehicle id="C15" depart="0.00">
        <route edges="82592241#2 -82592241#2 -82592241#1 262946969#0 262946969#1 926993943 722085187 23604841#0 42747698 42750922#0 42750922#1 340606267#1 42751506 5170997 882785079 42747913 828700334#2 678697945#0 678697945#1 678697945#2 678697945#3 678697945#4 340606259 250506427 678761498 42751314 42751326 878618789 61730115 340606281 42751503"/>
    </vehicle>
    <vehicle id="C16" depart="0.00">
        <route edges="617795905 678698625#0 678698625#1 340606259 250506427 678761498 42751314 340606265 250504121 42751315#0 42751315#1 678697942#0 678697942#1 250506423#0 250506423#1 340606270#0 340606270#1 340606270#2 340606270#3 322744967#0 322744967#1 42748183 42748184 849265773#1 882785080 42751501 42751509#0 1009203149#0 1009203149#1 -669737709#2 -669737709#1 -669737709#0 -669737711 -42750923#5 -42750923#4 -42750923#3 -42750923#2 -42750923#1 -42750923#0 -42750924 -42747637#8 -42747637#7 -42747637#6 -42747637#5 -42747696#2 -42747696#1 -42747696#0"/>
    </vehicle>
    <vehicle id="C17" depart="0.00">
        <route edges="250506419#1 887526441 881624921 -42751499 -42751500 -5170998 881624922#4 881624922#5 617999599 828700332#0 828700332#1 828700332#2 849265773#0 849265773#1 882785080 42751501 42751509#0 1009203149#0 1009203149#1 -669737709#2 -669737709#1 -669737709#0 -669737711 -42750923#5 -42750923#4 -42750923#3 -42750923#2 -42750923#1 -42750923#0 -42750924 -42747637#8 -42747637#7 -42747637#6 -42747637#5 -42747696#2 -42747696#1 -42747696#0 1107078019#2 1107078019#3 340606267#0 340606267#1 42751506 5170997 882785079 301016680#0"/>
    </vehicle>
    <vehicle id="C18" depart="0.00">
        <route edges="-42751499 -42751500 -5170998 881624922#4 881624922#5 5170999 887523754 340606253 250506426 250506437 250506423#0"/>
    </vehicle>
    <vehicle id="C19" depart="0.00">
        <route edges="-669737711 -42750923#5 -42750923#4 -42750923#3 -42750923#2 -42750923#1 -42750923#0 -42750924 -42747637#8 -42747637#7 -42747637#6 -42747637#5 -42747696#2 -42747696#1 -42747696#0 1107078019#2 42747538 42750921#0 42750921#1 42752388#1 24821965 926993944 1058539145 1058539146#0 1058539146#1 82592241#0 262946969#0 262946969#1"/>
    </vehicle>
    <vehicle id="C20" depart="0.00">
        <route edges="340606265 250504121 42751315#0 42751315#1 678697942#0 678697942#1 250506423#0 250506423#1 42748061#0 42748061#1 340606266 828700331 828700333 42751323 42751322 828700337 250506419#0 250506419#1 42748309 42748335 908533349 908533350 42748334 556616224 556616222#0 556616222#1 250506429#0 250506429#1 250506429#2 250506429#3 677423246 677423247#0 677423247#1 262946965#0 262946965#1 1058539143#1 1058539144#0 1058539144#1 262946969#0 262946969#1 926993943 722085187 23604841#0 23604841#1"/>
    </vehicle>
    <vehicle id="C21" depart="0.00">
        <route edges="262946962#2 262946962#3 262946962#4 262946987#0 262946987#1 556616223 556616225 908533352 908533351 31706459 42747876 31706460 669738788 -42751499 -42751500 -5170998 881624922#4 881624922#5 617999599 828700333 42751323 42751322 828700336 882785076#0"/>
    </vehicle>
    <vehicle id="C22" depart="0.00">
        <route edges="5170994 678697944 882785081 42751321#0 42751321#1 42751321#2 42748096 322744972#0 322744972#1 322744972#2 322744967#0 322744967#1 42748183 42748184 849265773#1 882785080 42751501 42751509#0 1009203149#0 1009203149#1 -669737709#2 -669737709#1 -669737709#0 -669737711 -42750923#5 -42750923#4 -42750923#3 -42750923#2 -42750923#1 -42750923#0 -42750924 -42747637#8 -42747637#7 -42747637#6 -42747637#5 -42747696#2 -42747696#1 -42747696#0 1107078019#2 42747538 42750921#0 42750921#1 42752388#1"/>
    </vehicle>
    <vehicle id="C23" depart="0.00">
        <route edges="1058539147 82592229#0 82592229#1 262946964 322744954#0 322744954#1 322744954#2 322744954#3 322744954#4 322744963#0 82592240 250506429#3 677423246 677423247#0"/>
    </vehicle>
    <vehicle id="C24" depart="0.00">
        <route edges="1058539145 1058539146#0 1058539146#1 1058539148#0 1058539148#1 1058539147 24821966#0 24821966#1 1069300697#0 1069300697#1 31706453 262946962#0 262946962#1 262946962#2 262946962#3 262946962#4 262946987#0 262946987#1 556616223 556616225 908533352 908533351 31706459 42747876 887526443 887526445 887526444 42751495 42751496#0 42751496#1 250506426 250506437 250506423#0 250506423#1 42748061#0 42748061#1 340606273 340606261#0 340606261#1 340606261#2 340606261#3 340606261#4 340606271"/>
    </vehicle>
    <vehicle id="C25" depart="0.00">
        <route edges="82592227 262946964 322744954#0 322744954#1 322744954#2 322744954#3 322744954#4 322744963#0 322744963#1 322744963#2 685020884 262946987#0 262946987#1 556616223 556616225 908533352 908533351 31706459 42747876 887526443 887526445 887526444 42751495 42751496#0 42751496#1 250506426 250506437 250506423#0 250506423#1 340606270#0 340606270#1 340606270#2 340606270#3 322744967#0 322744967#1 250506422 42751317#0 42751317#1 322744971 42751312 678697945#0"/>
    </vehicle>
    <vehicle id="C26" depart="0.00">
        <route edges="340606271 887523754 340606253 250506426 250506437 250506423#0 250506423#1 42748061#0 42748061#1 340606266 828700331 828700333 42751323 42751322 828700336 828700335 678698625#0 678698625#1 340606259 250506427 678761498 42751314 42751326 878618789 61730115 340606281 42751503"/>
    </vehicle>
    <vehicle id="C27" depart="0.00">
        <route edges="322744954#3 322744954#4 82592219 322744961 677428366 677428365 677423248 535063427 677428361 677428362 677423247#1 82592227 262946964"/>
    </vehicle>
    <vehicle id="C28" depart="0.00">
        <route edges="175008945 1009203146#0 1009203146#1 42752388#0 42752388#1 24821965 926993944 1058539145 1058539146#0 1058539146#1 82592241#0 262946969#0 262946969#1 926993943 722085187 23604841#0 42747698 42750922#0 42750922#1 340606267#1 42751506 5170997 882785079 301016680#0 301016680#1 301016680#2 301016680#3 828700336 882785076#0 882785076#1 882785076#2 882785076#3"/>
    </vehicle>
    <vehicle id="C29" depart="0.00">
        <route edges="828700334#0 828700334#1 828700334#2 678697945#0 678697945#1 678697945#2 678697945#3 678697945#4 340606259 42747955#0 42747955#1 42747956 250506419#0 250506419#1 42748309 42748335 908533349 908533350 42748334 556616224 556616222#0 556616222#1 250506429#0 250506429#1 250506429#2 250506429#3 677423246 677423247#0 677423247#1 82592227 262946964 322744954#0 322744954#1 322744954#2 322744954#3 322744954#4 322744963#0"/>
    </vehicle>

</routes>
