<?xml version="1.0" encoding="UTF-8"?>

<!-- generated on 2022-01-31 16:16:26 by Eclipse SUMO duarouter Version 1.9.2
<configuration xmlns:xsi="http://www.w3.org/2001/XMLSchema-instance" xsi:noNamespaceSchemaLocation="http://sumo.dlr.de/xsd/duarouterConfiguration.xsd">

    <input>
        <net-file value="osm.net.xml"/>
        <route-files value="osm.passenger.trips.xml"/>
    </input>

    <output>
        <output-file value="osm.passenger.trips.xml.tmp"/>
        <write-trips value="true"/>
    </output>

    <time>
        <begin value="0"/>
        <end value="3600"/>
    </time>

    <report>
        <no-warnings value="true"/>
        <ignore-errors value="true"/>
        <no-step-log value="true"/>
    </report>

</configuration>
-->

<routes xmlns:xsi="http://www.w3.org/2001/XMLSchema-instance" xsi:noNamespaceSchemaLocation="http://sumo.dlr.de/xsd/routes_file.xsd">
    <vType id="veh_passenger" vClass="passenger"/>
    <trip id="veh0" type="veh_passenger" depart="0.00" departLane="best" departSpeed="max" from="5170841#0" to="-42747637#3"/>
    <trip id="veh2" type="veh_passenger" depart="2.84" departLane="best" from="5171172#7" to="5171116#7"/>
    <trip id="veh4" type="veh_passenger" depart="5.67" departLane="best" from="387938685" to="-42747637#5"/>
    <trip id="veh6" type="veh_passenger" depart="8.51" departLane="best" from="5170992" to="42750923#4"/>
    <trip id="veh8" type="veh_passenger" depart="11.34" departLane="best" from="677425161#1" to="-155218283#2"/>
    <trip id="veh11" type="veh_passenger" depart="15.59" departLane="best" from="882785076#3" to="322744965#0"/>
    <trip id="veh12" type="veh_passenger" depart="17.01" departLane="best" from="-5171116#10" to="-5171116#3"/>
    <trip id="veh15" type="veh_passenger" depart="21.26" departLane="best" from="42750921#1" to="884247586"/>
    <trip id="veh16" type="veh_passenger" depart="22.68" departLane="best" from="340606253" to="42751318"/>
    <trip id="veh17" type="veh_passenger" depart="24.10" departLane="best" from="678697945#1" to="45683113"/>
    <trip id="veh20" type="veh_passenger" depart="28.35" departLane="best" from="170848626#1" to="262946969#1"/>
    <trip id="veh23" type="veh_passenger" depart="32.60" departLane="best" departSpeed="max" from="5170841#0" to="322744972#2"/>
    <trip id="veh24" type="veh_passenger" depart="34.02" departLane="best" from="322744972#1" to="155218283#2"/>
    <trip id="veh25" type="veh_passenger" depart="35.44" departLane="best" from="250506419#1" to="878618792"/>
    <trip id="veh28" type="veh_passenger" depart="39.69" departLane="best" from="-669737709#2" to="340606261#0"/>
    <trip id="veh29" type="veh_passenger" depart="41.11" departLane="best" from="887526445" to="5170848#2"/>
    <trip id="veh31" type="veh_passenger" depart="43.94" departLane="best" from="678698625#1" to="535068843#0"/>
    <trip id="veh32" type="veh_passenger" depart="45.36" departLane="best" from="171140397" to="-42747637#6"/>
    <trip id="veh33" type="veh_passenger" depart="46.78" departLane="best" from="262946969#1" to="250506429#3"/>
    <trip id="veh35" type="veh_passenger" depart="49.61" departLane="best" from="82592221#2" to="301016680#2"/>
    <trip id="veh36" type="veh_passenger" depart="51.03" departLane="best" from="5170998" to="340606267#0"/>
    <trip id="veh37" type="veh_passenger" depart="52.45" departLane="best" departSpeed="max" from="849265769" to="42747694#1"/>
    <trip id="veh38" type="veh_passenger" depart="53.87" departLane="best" from="250506419#0" to="250506420#1"/>
    <trip id="veh39" type="veh_passenger" depart="55.29" departLane="best" from="42751321#1" to="250506429#1"/>
    <trip id="veh40" type="veh_passenger" depart="56.70" departLane="best" from="42751509#3" to="828700330"/>
    <trip id="veh41" type="veh_passenger" depart="58.12" departLane="best" from="340606266" to="170848626#1"/>
    <trip id="veh42" type="veh_passenger" depart="59.54" departLane="best" from="926993944" to="42747956"/>
    <trip id="veh45" type="veh_passenger" depart="63.79" departLane="best" from="669737711" to="387938687#1"/>
    <trip id="veh46" type="veh_passenger" depart="65.21" departLane="best" from="-42747700#3" to="340606261#1"/>
    <trip id="veh47" type="veh_passenger" depart="66.63" departLane="best" from="926993944" to="42750920"/>
    <trip id="veh51" type="veh_passenger" depart="72.30" departLane="best" from="250506419#0" to="5170848#2"/>
    <trip id="veh53" type="veh_passenger" depart="75.13" departLane="best" from="42747648#0" to="881624922#4"/>
    <trip id="veh54" type="veh_passenger" depart="76.55" departLane="best" from="42747911#0" to="-82592231#1"/>
    <trip id="veh55" type="veh_passenger" depart="77.97" departLane="best" departSpeed="max" from="849265769" to="82592221#0"/>
    <trip id="veh56" type="veh_passenger" depart="79.38" departLane="best" from="262946962#1" to="5170848#2"/>
    <trip id="veh58" type="veh_passenger" depart="82.22" departLane="best" departSpeed="max" from="5204786" to="42750923#2"/>
    <trip id="veh59" type="veh_passenger" depart="83.64" departLane="best" from="617999599" to="42750921#1"/>
    <trip id="veh60" type="veh_passenger" depart="85.05" departLane="best" from="-155218281" to="322744954#3"/>
    <trip id="veh61" type="veh_passenger" depart="86.47" departLane="best" from="-42747637#1" to="878618792"/>
    <trip id="veh62" type="veh_passenger" depart="87.89" departLane="best" from="82592221#2" to="678697945#2"/>
    <trip id="veh63" type="veh_passenger" depart="89.31" departLane="best" from="262946964" to="-42747700#0"/>
    <trip id="veh64" type="veh_passenger" depart="90.72" departLane="best" from="82592221#2" to="881624922#0"/>
    <trip id="veh68" type="veh_passenger" depart="96.39" departLane="best" from="42747697#0" to="42751317#1"/>
    <trip id="veh69" type="veh_passenger" depart="97.81" departLane="best" from="250506419#0" to="82592221#0"/>
    <trip id="veh72" type="veh_passenger" depart="102.07" departLane="best" from="155218281" to="301016680#0"/>
    <trip id="veh74" type="veh_passenger" depart="104.90" departLane="best" from="42747637#2" to="42748097"/>
    <trip id="veh75" type="veh_passenger" depart="106.32" departLane="best" from="31706460" to="42751509#7"/>
    <trip id="veh76" type="veh_passenger" depart="107.74" departLane="best" from="171140397" to="170848626#1"/>
    <trip id="veh78" type="veh_passenger" depart="110.57" departLane="best" from="171140397" to="828700334#1"/>
    <trip id="veh81" type="veh_passenger" depart="114.82" departLane="best" departSpeed="max" from="164138226#0" to="-5171163#1"/>
    <trip id="veh83" type="veh_passenger" depart="117.66" departLane="best" from="42747696#1" to="669737709#1"/>
    <trip id="veh84" type="veh_passenger" depart="119.08" departLane="best" from="677425161#1" to="-884247586"/>
    <trip id="veh86" type="veh_passenger" depart="121.91" departLane="best" from="387938685" to="42747696#1"/>
    <trip id="veh88" type="veh_passenger" depart="124.75" departLane="best" from="340606267#0" to="322744965#0"/>
    <trip id="veh90" type="veh_passenger" depart="127.58" departLane="best" from="-964816689" to="42747648#1"/>
    <trip id="veh91" type="veh_passenger" depart="129.00" departLane="best" from="387938685" to="262946962#2"/>
    <trip id="veh94" type="veh_passenger" depart="133.25" departLane="best" from="42750923#5" to="-42747696#1"/>
    <trip id="veh95" type="veh_passenger" depart="134.67" departLane="best" from="964816689" to="678697945#4"/>
    <trip id="veh96" type="veh_passenger" depart="136.09" departLane="best" from="882785080" to="878618792"/>
    <trip id="veh99" type="veh_passenger" depart="140.34" departLane="best" from="340606266" to="-42747700#0"/>
    <trip id="veh100" type="veh_passenger" depart="141.76" departLane="best" from="340606253" to="887526442#1"/>
    <trip id="veh101" type="veh_passenger" depart="143.17" departLane="best" from="250506419#0" to="669737709#1"/>
    <trip id="veh102" type="veh_passenger" depart="144.59" departLane="best" from="42747648#1" to="387938687#1"/>
    <trip id="veh103" type="veh_passenger" depart="146.01" departLane="best" from="882785076#3" to="926993943"/>
    <trip id="veh106" type="veh_passenger" depart="150.26" departLane="best" from="882785080" to="42751509#3"/>
    <trip id="veh108" type="veh_passenger" depart="153.10" departLane="best" from="42747911#1" to="679059342"/>
    <trip id="veh109" type="veh_passenger" depart="154.52" departLane="best" from="-535068843#0" to="882785077#2"/>
    <trip id="veh113" type="veh_passenger" depart="160.19" departLane="best" from="82592240" to="250506420#1"/>
    <trip id="veh114" type="veh_passenger" depart="161.60" departLane="best" from="42751509#8" to="45683113"/>
    <trip id="veh116" type="veh_passenger" depart="164.44" departLane="best" from="42748097" to="878618792"/>
    <trip id="veh118" type="veh_passenger" depart="167.27" departLane="best" departSpeed="max" from="197914056#0" to="340606267#0"/>
    <trip id="veh121" type="veh_passenger" depart="171.53" departLane="best" from="964816689" to="926993944"/>
    <trip id="veh123" type="veh_passenger" depart="174.36" departLane="best" from="250506419#0" to="878618792"/>
    <trip id="veh126" type="veh_passenger" depart="178.61" departLane="best" departSpeed="max" from="45683111" to="887526443"/>
    <trip id="veh127" type="veh_passenger" depart="180.03" departLane="best" from="5170998" to="-155218283#2"/>
    <trip id="veh133" type="veh_passenger" depart="188.54" departLane="best" from="5170833-AddedOffRampEdge" to="250506429#1"/>
    <trip id="veh134" type="veh_passenger" depart="189.95" departLane="best" from="42747700#2" to="828700334#1"/>
    <trip id="veh136" type="veh_passenger" depart="192.79" departLane="best" from="387938685" to="262946962#2"/>
    <trip id="veh137" type="veh_passenger" depart="194.21" departLane="best" from="-155218283#0" to="535068834#0"/>
    <trip id="veh138" type="veh_passenger" depart="195.62" departLane="best" departSpeed="max" from="5170841#0" to="250506428"/>
    <trip id="veh140" type="veh_passenger" depart="198.46" departLane="best" from="387938687#0" to="-170848626#0"/>
    <trip id="veh141" type="veh_passenger" depart="199.88" departLane="best" from="-42750923#5" to="82592227"/>
    <trip id="veh142" type="veh_passenger" depart="201.29" departLane="best" from="828700334#1" to="42750923#5"/>
    <trip id="veh143" type="veh_passenger" depart="202.71" departLane="best" from="678697945#3" to="42751509#5"/>
    <trip id="veh144" type="veh_passenger" depart="204.13" departLane="best" from="262946964" to="828700332#1"/>
    <trip id="veh148" type="veh_passenger" depart="209.80" departLane="best" from="617999599" to="82592229#1"/>
    <trip id="veh149" type="veh_passenger" depart="211.22" departLane="best" from="340606270#0" to="45683113"/>
    <trip id="veh151" type="veh_passenger" depart="214.05" departLane="best" from="820461462" to="887523754"/>
    <trip id="veh152" type="veh_passenger" depart="215.47" departLane="best" from="677428366" to="82592227"/>
    <trip id="veh154" type="veh_passenger" depart="218.31" departLane="best" from="301016678-AddedOffRampEdge" to="878618792"/>
    <trip id="veh155" type="veh_passenger" depart="219.72" departLane="best" from="677425160" to="820461462"/>
    <trip id="veh157" type="veh_passenger" depart="222.56" departLane="best" from="82592221#0" to="722087240"/>
    <trip id="veh160" type="veh_passenger" depart="226.81" departLane="best" from="677423246" to="23604841#1"/>
    <trip id="veh161" type="veh_passenger" depart="228.23" departLane="best" from="-42747637#3" to="-964816689"/>
    <trip id="veh162" type="veh_passenger" depart="229.65" departLane="best" from="301016678" to="820461462"/>
    <trip id="veh163" type="veh_passenger" depart="231.06" departLane="best" from="882785079" to="262946962#2"/>
    <trip id="veh164" type="veh_passenger" depart="232.48" departLane="best" departSpeed="max" from="5170841#0" to="340606270#0"/>
    <trip id="veh165" type="veh_passenger" depart="233.90" departLane="best" from="887526441" to="42750922#1"/>
    <trip id="veh167" type="veh_passenger" depart="236.73" departLane="best" from="882785082" to="-82592231#1"/>
    <trip id="veh168" type="veh_passenger" depart="238.15" departLane="best" from="882785077#2" to="250506429#2"/>
    <trip id="veh172" type="veh_passenger" depart="243.82" departLane="best" from="340606261#0" to="42751509#2"/>
    <trip id="veh174" type="veh_passenger" depart="246.66" departLane="best" from="-155218281" to="875753969#1"/>
    <trip id="veh176" type="veh_passenger" depart="249.49" departLane="best" from="322744967" to="-42750923#2"/>
    <trip id="veh178" type="veh_passenger" depart="252.33" departLane="best" from="262946969#1" to="678761500"/>
    <trip id="veh180" type="veh_passenger" depart="255.16" departLane="best" from="262946965#0" to="340606273"/>
    <trip id="veh181" type="veh_passenger" depart="256.58" departLane="best" from="340606267#0" to="262946969#6"/>
    <trip id="veh184" type="veh_passenger" depart="260.83" departLane="best" from="828700334#0" to="45683113"/>
    <trip id="veh185" type="veh_passenger" depart="262.25" departLane="best" from="262946962#2" to="42751315#1"/>
    <trip id="veh186" type="veh_passenger" depart="263.67" departLane="best" from="-155218281" to="262946965#0"/>
    <trip id="veh187" type="veh_passenger" depart="265.09" departLane="best" from="387938687#1" to="42751509#3"/>
    <trip id="veh188" type="veh_passenger" depart="266.50" departLane="best" from="5170998" to="42747696#0"/>
    <trip id="veh190" type="veh_passenger" depart="269.34" departLane="best" from="42747696#1" to="828700333"/>
    <trip id="veh191" type="veh_passenger" depart="270.76" departLane="best" from="677423247#1" to="-669737709#4"/>
    <trip id="veh193" type="veh_passenger" depart="273.59" departLane="best" from="5170833-AddedOffRampEdge" to="322744963#1"/>
    <trip id="veh195" type="veh_passenger" depart="276.43" departLane="best" from="1009203149#1" to="-42747637#3"/>
    <trip id="veh196" type="veh_passenger" depart="277.84" departLane="best" departSpeed="max" from="197914056#0" to="42747698"/>
    <trip id="veh200" type="veh_passenger" depart="283.51" departLane="best" from="42747875" to="250506419#1"/>
    <trip id="veh201" type="veh_passenger" depart="284.93" departLane="best" from="5170999" to="-155218283#1"/>
    <trip id="veh204" type="veh_passenger" depart="289.18" departLane="best" from="-82592231#1" to="882785076#3"/>
    <trip id="veh205" type="veh_passenger" depart="290.60" departLane="best" from="42748061#1" to="-42747696#1"/>
    <trip id="veh206" type="veh_passenger" depart="292.02" departLane="best" from="23334837" to="678761500"/>
    <trip id="veh207" type="veh_passenger" depart="293.44" departLane="best" from="42747648#1" to="677425160"/>
    <trip id="veh209" type="veh_passenger" depart="296.27" departLane="best" from="42752388#1" to="881624922#2"/>
    <trip id="veh210" type="veh_passenger" depart="297.69" departLane="best" from="82592241#1" to="45683113"/>
    <trip id="veh212" type="veh_passenger" depart="300.52" departLane="best" from="678697945#2" to="42751315#1"/>
    <trip id="veh214" type="veh_passenger" depart="303.36" departLane="best" from="42747697#0" to="250506427"/>
    <trip id="veh215" type="veh_passenger" depart="304.78" departLane="best" from="220275673" to="5170848#2"/>
    <trip id="veh216" type="veh_passenger" depart="306.20" departLane="best" departSpeed="max" from="5204786" to="42748183"/>
    <trip id="veh218" type="veh_passenger" depart="309.03" departLane="best" from="-42751499" to="262946965#0"/>
    <trip id="veh219" type="veh_passenger" depart="310.45" departLane="best" from="250506420#3" to="322744954#1"/>
    <trip id="veh223" type="veh_passenger" depart="316.12" departLane="best" from="340606270#0" to="42750923#3"/>
    <trip id="veh224" type="veh_passenger" depart="317.54" departLane="best" from="340606273" to="155218283#1"/>
    <trip id="veh227" type="veh_passenger" depart="321.79" departLane="best" from="340606255" to="-155218283#1"/>
    <trip id="veh229" type="veh_passenger" depart="324.62" departLane="best" from="679059342" to="881624922#4"/>
    <trip id="veh235" type="veh_passenger" depart="333.13" departLane="best" departSpeed="max" from="45683111" to="-42747637#4"/>
    <trip id="veh236" type="veh_passenger" depart="334.55" departLane="best" from="-42747637#4" to="5170848#2"/>
    <trip id="veh238" type="veh_passenger" depart="337.38" departLane="best" from="-42747696#1" to="340606261#0"/>
    <trip id="veh240" type="veh_passenger" depart="340.22" departLane="best" departSpeed="max" from="5204786" to="340606261#0"/>
    <trip id="veh243" type="veh_passenger" depart="344.47" departLane="best" from="-42747637#1" to="42750923#2"/>
    <trip id="veh244" type="veh_passenger" depart="345.89" departLane="best" from="964816689" to="322744965#1"/>
    <trip id="veh247" type="veh_passenger" depart="350.14" departLane="best" from="881624922#1" to="1009203149#1"/>
    <trip id="veh251" type="veh_passenger" depart="355.81" departLane="best" from="-669737709#4" to="45683113"/>
    <trip id="veh252" type="veh_passenger" depart="357.23" departLane="best" from="678697942#0" to="882785079"/>
    <trip id="veh255" type="veh_passenger" depart="361.48" departLane="best" from="882785076#3" to="340606267#0"/>
    <trip id="veh262" type="veh_passenger" depart="371.40" departLane="best" from="387938687#1" to="322878948"/>
    <trip id="veh263" type="veh_passenger" depart="372.82" departLane="best" from="42747912" to="322744965#1"/>
    <trip id="veh266" type="veh_passenger" depart="377.07" departLane="best" departSpeed="max" from="5170841#0" to="678697945#1"/>
    <trip id="veh269" type="veh_passenger" depart="381.33" departLane="best" from="250506420#1" to="677425161#1"/>
    <trip id="veh271" type="veh_passenger" depart="384.16" departLane="best" from="250506419#1" to="678761500-AddedOnRampEdge"/>
    <trip id="veh273" type="veh_passenger" depart="387.00" departLane="best" from="82592227" to="250506419#1"/>
    <trip id="veh274" type="veh_passenger" depart="388.41" departLane="best" from="42747694#1" to="45683113"/>
    <trip id="veh275" type="veh_passenger" depart="389.83" departLane="best" from="340606253" to="-42747637#5"/>
    <trip id="veh280" type="veh_passenger" depart="396.92" departLane="best" from="-170848626#0" to="881624922#1"/>
    <trip id="veh285" type="veh_passenger" depart="404.01" departLane="best" from="42751509#2" to="42747697#2"/>
    <trip id="veh286" type="veh_passenger" depart="405.43" departLane="best" from="42748309" to="42747538"/>
    <trip id="veh292" type="veh_passenger" depart="413.93" departLane="best" from="887523754" to="42748309"/>
    <trip id="veh294" type="veh_passenger" depart="416.77" departLane="best" from="-82592231#2" to="-171140397"/>
    <trip id="veh297" type="veh_passenger" depart="421.02" departLane="best" from="82592219" to="42747876"/>
    <trip id="veh298" type="veh_passenger" depart="422.44" departLane="best" from="82592221#0" to="42751509#1"/>
    <trip id="veh299" type="veh_passenger" depart="423.85" departLane="best" from="-884247585" to="-42747696#1"/>
    <trip id="veh300" type="veh_passenger" depart="425.27" departLane="best" from="880273111" to="42747699#0"/>
    <trip id="veh303" type="veh_passenger" depart="429.52" departLane="best" from="42751321#2" to="262947136"/>
    <trip id="veh306" type="veh_passenger" depart="433.78" departLane="best" from="42748097" to="42747648#1"/>
    <trip id="veh310" type="veh_passenger" depart="439.45" departLane="best" departSpeed="max" from="164138226#0" to="164138226#1"/>
    <trip id="veh311" type="veh_passenger" depart="440.86" departLane="best" from="5171050#0" to="-5171172#9"/>
    <trip id="veh312" type="veh_passenger" depart="442.28" departLane="best" from="-155218283#0" to="42747648#1"/>
    <trip id="veh313" type="veh_passenger" depart="443.70" departLane="best" from="42751509#8" to="262946969#1"/>
    <trip id="veh319" type="veh_passenger" depart="452.20" departLane="best" from="387938687#0" to="42750923#4"/>
    <trip id="veh321" type="veh_passenger" depart="455.04" departLane="best" from="678697945#0" to="-42750923#3"/>
    <trip id="veh326" type="veh_passenger" depart="462.13" departLane="best" from="-42747648#2" to="42747637#2"/>
    <trip id="veh327" type="veh_passenger" depart="463.55" departLane="best" from="262946987#1" to="250506422"/>
    <trip id="veh329" type="veh_passenger" depart="466.38" departLane="best" from="678697945#4" to="42751509#1"/>
    <trip id="veh330" type="veh_passenger" depart="467.80" departLane="best" from="881624922#2" to="964816689"/>
    <trip id="veh333" type="veh_passenger" depart="472.05" departLane="best" from="42747696#0" to="5170998"/>
    <trip id="veh334" type="veh_passenger" depart="473.47" departLane="best" departSpeed="max" from="849265769" to="-82592231#2"/>
    <trip id="veh335" type="veh_passenger" depart="474.89" departLane="best" from="42751509#4" to="5170848#1"/>
    <trip id="veh339" type="veh_passenger" depart="480.56" departLane="best" from="250506429#2" to="881624921"/>
    <trip id="veh340" type="veh_passenger" depart="481.97" departLane="best" from="677428369#1" to="42751317#1"/>
    <trip id="veh341" type="veh_passenger" depart="483.39" departLane="best" from="42747648#1" to="301016680#2"/>
    <trip id="veh343" type="veh_passenger" depart="486.23" departLane="best" from="340606267#1" to="42748096"/>
    <trip id="veh345" type="veh_passenger" depart="489.06" departLane="best" from="42750923#1" to="340606281-AddedOnRampEdge"/>
    <trip id="veh346" type="veh_passenger" depart="490.48" departLane="best" from="-884247586" to="322744972#0"/>
    <trip id="veh348" type="veh_passenger" depart="493.31" departLane="best" departSpeed="max" from="5204786" to="155218283#0"/>
    <trip id="veh349" type="veh_passenger" depart="494.73" departLane="best" from="42750923#4" to="878618792"/>
    <trip id="veh352" type="veh_passenger" depart="498.98" departLane="best" departSpeed="max" from="45683111" to="250504121"/>
    <trip id="veh353" type="veh_passenger" depart="500.40" departLane="best" from="-535068843#0" to="42751317#1"/>
    <trip id="veh355" type="veh_passenger" depart="503.24" departLane="best" from="908533349" to="828700337"/>
    <trip id="veh358" type="veh_passenger" depart="507.49" departLane="best" from="250506422" to="678697945#3"/>
    <trip id="veh359" type="veh_passenger" depart="508.91" departLane="best" from="887526440#1" to="250506419#1"/>
    <trip id="veh360" type="veh_passenger" depart="510.33" departLane="best" from="42750923#5" to="340606261#2"/>
    <trip id="veh361" type="veh_passenger" depart="511.74" departLane="best" departSpeed="max" from="849265769" to="42747956"/>
    <trip id="veh362" type="veh_passenger" depart="513.16" departLane="best" from="250506423#0" to="669737709#4"/>
    <trip id="veh363" type="veh_passenger" depart="514.58" departLane="best" from="340606273" to="878618792"/>
    <trip id="veh364" type="veh_passenger" depart="516.00" departLane="best" from="42747913" to="678697942#0"/>
    <trip id="veh365" type="veh_passenger" depart="517.41" departLane="best" from="250506427" to="262946969#6"/>
    <trip id="veh366" type="veh_passenger" depart="518.83" departLane="best" from="42751509#5" to="964816689"/>
    <trip id="veh368" type="veh_passenger" depart="521.67" departLane="best" from="42750922#0" to="322744965#1"/>
    <trip id="veh369" type="veh_passenger" depart="523.08" departLane="best" from="42751315#1" to="42750923#4"/>
    <trip id="veh370" type="veh_passenger" depart="524.50" departLane="best" from="42747648#1" to="322744954#2"/>
    <trip id="veh372" type="veh_passenger" depart="527.34" departLane="best" from="42751497" to="24821966#3"/>
    <trip id="veh373" type="veh_passenger" depart="528.75" departLane="best" from="535068843#0" to="-42747695#0"/>
    <trip id="veh374" type="veh_passenger" depart="530.17" departLane="best" from="5171205#1" to="5171155#2"/>
    <trip id="veh375" type="veh_passenger" depart="531.59" departLane="best" from="677428366" to="340606261#3"/>
    <trip id="veh377" type="veh_passenger" depart="534.42" departLane="best" from="887526440#1" to="42747911#0"/>
    <trip id="veh378" type="veh_passenger" depart="535.84" departLane="best" from="-42747648#1" to="42747913"/>
    <trip id="veh379" type="veh_passenger" depart="537.26" departLane="best" from="42751509#6" to="82592219"/>
    <trip id="veh380" type="veh_passenger" depart="538.68" departLane="best" from="82592221#1" to="42747637#6"/>
    <trip id="veh381" type="veh_passenger" depart="540.09" departLane="best" from="42748183" to="42747694#0"/>
    <trip id="veh385" type="veh_passenger" depart="545.76" departLane="best" from="340606253" to="31706460"/>
    <trip id="veh386" type="veh_passenger" depart="547.18" departLane="best" from="5171163#2" to="5171205#5"/>
    <trip id="veh387" type="veh_passenger" depart="548.60" departLane="best" from="82592221#0" to="-42747648#0"/>
    <trip id="veh389" type="veh_passenger" depart="551.43" departLane="best" departSpeed="max" from="849265769" to="926993944"/>
    <trip id="veh391" type="veh_passenger" depart="554.27" departLane="best" from="-5171116#4" to="5170848#1"/>
    <trip id="veh392" type="veh_passenger" depart="555.69" departLane="best" from="82592221#0" to="42747637#7"/>
    <trip id="veh394" type="veh_passenger" depart="558.52" departLane="best" from="-42747695#1" to="677423247#1"/>
    <trip id="veh395" type="veh_passenger" depart="559.94" departLane="best" from="250506433" to="340606255"/>
    <trip id="veh399" type="veh_passenger" depart="565.61" departLane="best" from="82592221#0" to="45683113"/>
    <trip id="veh400" type="veh_passenger" depart="567.03" departLane="best" departSpeed="max" from="197914056#0" to="828700337"/>
    <trip id="veh402" type="veh_passenger" depart="569.86" departLane="best" from="24821966#0" to="250506423#1"/>
    <trip id="veh403" type="veh_passenger" depart="571.28" departLane="best" from="-170848626#0" to="677425161#0"/>
    <trip id="veh405" type="veh_passenger" depart="574.12" departLane="best" from="-535068843#0" to="42747637#6"/>
    <trip id="veh406" type="veh_passenger" depart="575.53" departLane="best" from="322744954#2" to="42751509#7"/>
    <trip id="veh407" type="veh_passenger" depart="576.95" departLane="best" departSpeed="max" from="5170841#0" to="387938687#1"/>
    <trip id="veh409" type="veh_passenger" depart="579.79" departLane="best" from="155218281" to="340606261#3"/>
    <trip id="veh410" type="veh_passenger" depart="581.20" departLane="best" from="42747699#0" to="24821966#4"/>
    <trip id="veh411" type="veh_passenger" depart="582.62" departLane="best" from="42751497" to="42751509#1"/>
    <trip id="veh412" type="veh_passenger" depart="584.04" departLane="best" from="908533349" to="262946969#3"/>
    <trip id="veh414" type="veh_passenger" depart="586.87" departLane="best" from="250506422" to="42751496#1"/>
    <trip id="veh415" type="veh_passenger" depart="588.29" departLane="best" from="5171133#0" to="5171205#2"/>
    <trip id="veh417" type="veh_passenger" depart="591.13" departLane="best" from="42747876" to="828700334#0"/>
    <trip id="veh418" type="veh_passenger" depart="592.54" departLane="best" from="250506429#1" to="677425160"/>
    <trip id="veh420" type="veh_passenger" depart="595.38" departLane="best" departSpeed="max" from="5170841#0" to="45683113"/>
    <trip id="veh422" type="veh_passenger" depart="598.21" departLane="best" from="5170832" to="828700334#0"/>
    <trip id="veh424" type="veh_passenger" depart="601.05" departLane="best" from="5171172#5" to="-5171116#1"/>
    <trip id="veh427" type="veh_passenger" depart="605.30" departLane="best" from="42750922#1" to="884247586"/>
    <trip id="veh428" type="veh_passenger" depart="606.72" departLane="best" from="42748309" to="849265770#1"/>
    <trip id="veh429" type="veh_passenger" depart="608.14" departLane="best" from="678697945#1" to="250506426"/>
    <trip id="veh430" type="veh_passenger" depart="609.56" departLane="best" from="678697944" to="42747700#0"/>
    <trip id="veh436" type="veh_passenger" depart="618.06" departLane="best" from="882785080" to="677425161#0"/>
    <trip id="veh437" type="veh_passenger" depart="619.48" departLane="best" from="322744971" to="669737709#4"/>
    <trip id="veh438" type="veh_passenger" depart="620.90" departLane="best" from="-171140397" to="42750923#1"/>
    <trip id="veh442" type="veh_passenger" depart="626.57" departLane="best" from="-42747637#3" to="82592229#1"/>
    <trip id="veh444" type="veh_passenger" depart="629.40" departLane="best" from="678697943" to="828700335"/>
    <trip id="veh445" type="veh_passenger" depart="630.82" departLane="best" from="262946962#2" to="340606273"/>
    <trip id="veh447" type="veh_passenger" depart="633.65" departLane="best" from="262946962#3" to="42747878"/>
    <trip id="veh450" type="veh_passenger" depart="637.91" departLane="best" from="881624921" to="387938687#0"/>
    <trip id="veh452" type="veh_passenger" depart="640.74" departLane="best" from="42747700#2" to="340606273"/>
    <trip id="veh453" type="veh_passenger" depart="642.16" departLane="best" from="881624922#2" to="-42747637#7"/>
    <trip id="veh454" type="veh_passenger" depart="643.58" departLane="best" from="322744972#1" to="42747637#7"/>
    <trip id="veh455" type="veh_passenger" depart="644.99" departLane="best" from="-5171116#4" to="5171133#1"/>
    <trip id="veh456" type="veh_passenger" depart="646.41" departLane="best" from="42750923#2" to="887526440#0"/>