<?xml version="1.0" encoding="UTF-8"?>

<!-- generated on 2022-02-15 16:45:34 by Eclipse SUMO duarouter Version 1.9.2
<configuration xmlns:xsi="http://www.w3.org/2001/XMLSchema-instance" xsi:noNamespaceSchemaLocation="http://sumo.dlr.de/xsd/duarouterConfiguration.xsd">

    <input>
        <net-file value="osm.net.xml"/>
        <route-files value="trips.trips.xml"/>
    </input>

    <output>
        <output-file value="random200.rou.xml"/>
        <alternatives-output value="random200.rou.alt.xml"/>
    </output>

    <time>
        <begin value="0"/>
        <end value="200"/>
    </time>

    <report>
        <no-warnings value="true"/>
        <ignore-errors value="true"/>
        <no-step-log value="true"/>
    </report>

</configuration>
-->

<routes xmlns:xsi="http://www.w3.org/2001/XMLSchema-instance" xsi:noNamespaceSchemaLocation="http://sumo.dlr.de/xsd/routes_file.xsd">
    <vehicle id="0" depart="0.00">
        <route edges="5170996 881624922#0 881624922#1 881624922#2 881624922#4 617999599 828700332#1 849265773#0 849265773#1 882785080 1009203149#1 -669737709#2 -669737709#1 -669737709#0 -42750923#5 -42750923#4 -42750923#3 -42750923#2 -42750923#1 -42750923#0"/>
    </vehicle>
    <vehicle id="1" depart="1.00">
        <route edges="322744961 677428366 677423247#1 82592227 262946964 322744954#0 322744954#1 322744954#2 322744954#3 322744954#4 322744963#0 322744963#1 262946987#1"/>
    </vehicle>
    <vehicle id="3" depart="3.00">
        <route edges="82592227 262946964 322744954#0 322744954#1 322744954#2 322744954#3 322744954#4 82592219 322744961 677428366 677423247#1 262946965#0 262946965#1 262946969#3 262946969#6 926993943 722085187 42747698 42750922#0 42747699#0 42747699#1 42750923#5 669737711 669737709#1 -669737709#1"/>
    </vehicle>
    <vehicle id="5" depart="5.00">
        <route edges="262946987#1 42747876 887526443 887526445 42751496#0 42751496#1 250506426 250506437 250506423#0 250506423#1 340606270#0 340606270#2 340606270#3 322744967 42748183 42748184 849265773#1 882785080 42751509#1 42751509#2 42751509#3 42751509#4 42751509#5 42751509#6"/>
    </vehicle>
    <vehicle id="6" depart="6.00">
        <route edges="-42750923#2 -42750923#1 -42750923#0 -42747637#7 -42747637#6 -42747637#5 -42747696#1 -42747696#0 42751509#7 42747538 42750921#1 42752388#1 926993944 24821966#0 24821966#3 262946969#3"/>
    </vehicle>
    <vehicle id="11" depart="11.00">
        <route edges="42747637#0 42747637#1 -42747697#2 -42747697#1 -42747697#0 42751509#6 42751509#7 42747538 42750921#1 42752388#1 926993944 24821966#0 24821966#3 24821966#4"/>
    </vehicle>
    <vehicle id="12" depart="12.00">
        <route edges="882785082 1009203146#0 1009203146#1 42752388#1 926993944 24821966#0 24821966#3 24821966#4 387938685 322744965#0 387938687#0 387938687#1"/>
    </vehicle>
    <vehicle id="13" depart="13.00">
        <route edges="-669737709#4 -669737709#3 -669737709#2 -669737709#1 -669737709#0 -42750923#5 -42750923#4 155218283#0 155218283#1 155218283#2 820461462 -820461462"/>
    </vehicle>
    <vehicle id="16" depart="16.00">
        <route edges="45683111 5170833 5170833-AddedOffRampEdge 5170992 5170993 882785082 1009203148 884343942"/>
    </vehicle>
    <vehicle id="17" depart="17.00">
        <route edges="42748098 679059342 42751355 679059343 678761499 678761500-AddedOnRampEdge 678761500 45683113"/>
    </vehicle>
    <vehicle id="20" depart="20.00">
        <route edges="5171163#0 5171163#1 5171172#2 5171172#3 5171159#0 -5171116#4 -5171116#3"/>
    </vehicle>
    <vehicle id="21" depart="21.00">
        <route edges="262946987#1 42747876 887526443 887526445 42751496#0 42751496#1 250506426 250506437 250506423#0 250506423#1 42748061#0 42748061#1 340606266 828700333 828700337 250506419#0 250506419#1 42748309 908533349 322744973#1"/>
    </vehicle>
    <vehicle id="23" depart="23.00">
        <route edges="-884247585 -884247586 -42747695#1 -42747695#0 42751509#4 42751509#5 42751509#6 42751509#7 42747538 42750921#1 42752388#1 926993944 24821966#0 24821966#3 24821966#4 387938685 322744965#0 322744965#1"/>
    </vehicle>
    <vehicle id="24" depart="24.00">
        <route edges="5170993 882785082 1009203146#0 1009203146#1 42752388#1 926993944 24821966#0 262946969#6 926993943 722085187 42747698 42750922#0 42750922#1 340606267#1 882785079 301016680#0 882785077#2 849265771 322744972#0 322744972#1 322744972#2 322744967 250506422 42747877"/>
    </vehicle>
    <vehicle id="25" depart="25.00">
        <route edges="42747911#1 882785077#0 301016680#2 828700337 250506419#0 250506419#1 42748309 908533349 262946987#1"/>
    </vehicle>
    <vehicle id="26" depart="26.00">
        <route edges="301016680#0 301016680#2 828700337 250506419#0 250506419#1 887526441 881624921 -42751499 881624922#4"/>
    </vehicle>
    <vehicle id="29" depart="29.00">
        <route edges="24821966#4 262946969#1 262946969#3 262946969#6 926993943 722085187 42747698 42750922#0 42750922#1 340606267#1 42747875 42748098"/>
    </vehicle>
    <vehicle id="35" depart="35.00">
        <route edges="262946969#6 926993943 722085187 42747698 42750922#0 42750922#1 340606267#1 882785079"/>
    </vehicle>
    <vehicle id="38" depart="38.00">
        <route edges="849265773#0 849265773#1 882785080 1009203149#1 -669737709#2 -669737709#1 -669737709#0 -42750923#5 -42750923#4 -42750923#3 -42750923#2 -42750923#1 -42750923#0 -42747637#7 -42747637#6 -42747637#5 -42747696#1 -42747696#0 42751509#7 42751509#8 340606267#0 340606267#1 882785079 301016680#0 882785077#2 849265771 322744972#0 322744972#1 322744972#2 322744967 250506422 42747877 42751318 881581728#1 42751505#0"/>
    </vehicle>
    <vehicle id="40" depart="40.00">
        <route edges="5170832 882785082 1009203146#0 1009203146#1 42752388#1 926993944 24821966#0 24821966#3 82592229#1 262946964 322744954#0 322744954#1 322744954#2 322744954#3 322744954#4 322744963#0 322744963#1 262946987#1 42747876 31706460"/>
    </vehicle>
    <vehicle id="41" depart="41.00">
        <route edges="5170833 5170833-AddedOffRampEdge 678697941 340606281-AddedOnRampEdge 340606281 878618792-AddedOnRampEdge 878618792"/>
    </vehicle>
    <vehicle id="42" depart="42.00">
        <route edges="42748309 908533349 262946987#1"/>
    </vehicle>
    <vehicle id="43" depart="43.00">
        <route edges="926993944 24821966#0 262946969#6 926993943 722085187 42747698 42750922#0 42747699#0 -42747700#3 -42747700#2 -42747700#0 -42750923#1 -42750923#0 -42747637#7 -42747637#6 -42747637#5 -42747696#1 -42747696#0 42751509#7 42747538 42750921#1 42752388#1"/>
    </vehicle>
    <vehicle id="48" depart="48.00">
        <route edges="926993944 24821966#0 262946969#6 926993943 722085187 23604841#1 23334837 42750920 722087240 881581728#1 5171001 678761499 678761500-AddedOnRampEdge 678761500 45683113"/>
    </vehicle>
    <vehicle id="56" depart="56.00">
        <route edges="42751509#4 42751509#5 42751509#6 42751509#7 42751509#8 340606267#0 340606267#1 882785079 42747913 828700334#2 678697945#0 678697945#1 678697945#2 678697945#3 678697945#4 340606259 42747955#0 42747955#1 250506433"/>
    </vehicle>
    <vehicle id="57" depart="57.00">
        <route edges="849265769 882785080 1009203149#1 -669737709#2 -669737709#1 -669737709#0 -42750923#5 -42750923#4 -42750923#3 -42750923#2 -42750923#1 -42750923#0 -42747637#7 -42747637#6 -42747637#5 -42747696#1 -42747696#0 42751509#7 42747538 42750921#1 42752388#1 926993944 24821966#0 82592241#1 82592241#2 82592231#1"/>
    </vehicle>
    <vehicle id="59" depart="59.00">
        <route edges="5170841#3 5170832 882785082 1009203146#0 1009203146#1 42752388#1 926993944 24821966#0 24821966#3 24821966#4"/>
    </vehicle>
    <vehicle id="60" depart="60.00">
        <route edges="535068843#0 387938687#0 387938687#1 262946962#1 262946962#2 262946962#3 262946987#1 42747876 887526443 887526445 42751496#0 42751496#1 250506426 250506437 250506423#0 250506423#1 42748061#0 42748061#1 340606266 828700333 828700335 678698625#0 678698625#1 340606259 250506427 42751354 679059343 678761499 678761500-AddedOnRampEdge 678761500 45683113"/>
    </vehicle>
    <vehicle id="61" depart="61.00">
        <route edges="669737711 -669737709#0 -42750923#5 -42750923#4 -42750923#3 -42750923#2 -42750923#1 -42750923#0 -42747637#7 -42747637#6 -42747637#5 -42747696#1 -42747696#0 42751509#7 42751509#8 340606267#0 340606267#1 882785079 42747913 828700334#2 678697945#0 678697945#1 678697945#2 678697945#3 678697945#4 340606259 250506427 42751354 679059343 678761499 678761500-AddedOnRampEdge 678761500 45683113"/>
    </vehicle>
    <vehicle id="62" depart="62.00">
        <route edges="-155218281 -42747700#2 -42747700#0 -42750923#1 -42750923#0 -42747637#7 -42747637#6 -42747637#5 -42747696#1 -42747696#0 42751509#7 42751509#8 340606267#0 340606267#1 882785079 42747913 828700334#2 678697945#0 678697945#1 678697945#2 678697945#3 678697945#4 340606259 250506427 678761498 42751326 340606281-AddedOnRampEdge 340606281"/>
    </vehicle>
    <vehicle id="63" depart="63.00">
        <route edges="-42747695#1 -42747695#0 42751509#4 42751509#5 42751509#6 42751509#7 42751509#8 340606267#0 340606267#1 882785079 301016680#0 882785077#2 849265771 322744972#0 322744972#1 322744972#2 322744967 250506422 42747877 42751318 881581728#1"/>
    </vehicle>
    <vehicle id="67" depart="67.00">
        <route edges="-669737709#0 -42750923#5 -42750923#4 -42750923#3 -42750923#2 -42750923#1 -42750923#0 -42747637#7 -42747637#6 -42747637#5 -42747696#1 -42747696#0 42751509#7 42751509#8 340606267#0 340606267#1 882785079 301016680#0 301016680#2 828700337 250506419#0 250506419#1 887526441 881624921 887526442#0 887526442#1 5171002 42751505#1"/>
    </vehicle>
    <vehicle id="71" depart="71.00">
        <route edges="301016680#0 301016680#2 828700337 250506419#0 250506419#1 887526441 881624921 -42751499 881624922#4 617999599 828700332#1"/>
    </vehicle>
    <vehicle id="74" depart="74.00">
        <route edges="262946969#1 82592229#1 262946964 322744954#0 322744954#1 322744954#2 322744954#3 322744954#4 322744963#0 322744963#1 262946987#1 42747876 887526443 887526445 42751496#0 42751496#1 250506426 250506437 250506423#0 250506423#1 340606270#0 340606270#2 340606270#3"/>
    </vehicle>
    <vehicle id="79" depart="79.00">
        <route edges="262946987#1"/>
    </vehicle>
    <vehicle id="81" depart="81.00">
        <route edges="262946987#1 42747876 887526443 887526445 42751496#0 42751496#1 250506426 250506437 250506423#0 250506423#1 340606270#0 340606270#2 340606270#3 322744967 42748183 42748184 849265773#1 882785080 42751509#1 42751509#2 669736532 884343942 878618792-AddedOnRampEdge 878618792"/>
    </vehicle>
    <vehicle id="84" depart="84.00">
        <route edges="262946969#6 926993943 722085187 42747698 42750922#0 42750922#1 340606267#1 882785079 301016680#0 301016680#2 828700337 250506419#0 250506419#1 887526441 881624921 887526442#0 887526442#1 887526440#0 887526440#1 250506420#1 171140397"/>
    </vehicle>
    <vehicle id="87" depart="87.00">
        <route edges="678697944 42751321#0 42751321#1 42751321#2 42748096 322744972#0 322744972#1 322744972#2 322744967 250506422 42751317#1 322744971 678697945#0 678697945#1 678697945#2 678697945#3 678697945#4 340606259 42747955#0 42747955#1 42747956 250506419#0 250506419#1 42748309 908533349 322744973#1 262946969#1"/>
    </vehicle>
    <vehicle id="88" depart="88.00">
        <route edges="-82592231#1 -82592241#2 -82592241#1 24821966#3 82592229#1 262946964 322744954#0 322744954#1 322744954#2 322744954#3 322744954#4 322744963#0 322744963#1 262946987#1 42747876 887526443 887526445 42751496#0"/>
    </vehicle>
    <vehicle id="91" depart="91.00">
        <route edges="908533349 250506429#1 250506429#2 250506429#3 677423246 677423247#1 262946965#0 -82592231#2 -82592231#1"/>
    </vehicle>
    <vehicle id="99" depart="99.00">
        <route edges="964816689 535068843#0 387938687#0 387938687#1 262946969#1 262946969#3 262946969#6 926993943 722085187"/>
    </vehicle>
    <vehicle id="104" depart="104.00">
        <route edges="42748098 42747912 875753969#0 875753969#1 617795905 678698625#0 678698625#1 340606259 42747955#0 42747955#1 42747956 250506419#0 250506419#1 42748309 908533349"/>
    </vehicle>
    <vehicle id="105" depart="105.00">
        <route edges="301016680#0 301016680#2 828700337 250506419#0 250506419#1 887526441 881624921 -42751499 881624922#4 5170999 887523754 340606253 340606264 678697944"/>
    </vehicle>
    <vehicle id="107" depart="107.00">
        <route edges="882785082 1009203146#0 1009203146#1 42752388#1 926993944"/>
    </vehicle>
    <vehicle id="109" depart="109.00">
        <route edges="24821966#0 262946969#6 926993943 722085187 42747698 42750922#0 42750922#1 340606267#1 882785079 301016680#0 882785077#2 849265771 322744972#0 322744972#1 322744972#2 322744967 42748183 250506428 42751321#0 42751321#1 42751321#2 42748097 849265770#1 828700330 340606261#0 340606261#1"/>
    </vehicle>
    <vehicle id="111" depart="111.00">
        <route edges="45683111 5170833 5170833-AddedOffRampEdge 5170992 880273111 678697943 678697942#0 678697942#1 250506423#0 250506423#1 340606270#0 340606270#2 340606270#3 322744967 42748183 42748184 849265773#1 882785080 1009203149#1 669737709#3 669737709#4"/>
    </vehicle>
    <vehicle id="113" depart="113.00">
        <route edges="42751509#5 42747697#0 42747697#1 42747697#2 42747637#2 42747637#3 42747637#4 42747637#5 42747637#6 42747637#7 42747637#8 42750923#1 42747700#0 155218283#2 820461462"/>
    </vehicle>
    <vehicle id="116" depart="116.00">
        <route edges="5170841#0 5171050#0 5171051 -5171116#10 -5171116#9 5171172#0 5171172#1 5171172#2 5171172#3 5171159#0 5171116#6"/>
    </vehicle>
    <vehicle id="119" depart="119.00">
        <route edges="5170841#0 5171050#0 5171050#1 5171050#2 5171050#3 5171050#4 5170848#1"/>
    </vehicle>
    <vehicle id="123" depart="123.00">
        <route edges="301016678 301016678-AddedOffRampEdge 42751497 42751496#0 42751496#1 250506426 250506437 250506423#0 250506423#1 42748061#0 42748061#1 340606266 828700333 828700337 250506419#0 250506419#1 42748309"/>
    </vehicle>
    <vehicle id="127" depart="127.00">
        <route edges="926993944"/>
    </vehicle>
    <vehicle id="129" depart="129.00">
        <route edges="301016680#0 301016680#2 828700337 250506419#0 250506419#1 887526441 881624921"/>
    </vehicle>
    <vehicle id="130" depart="130.00">
        <route edges="820461469 -884247585 -884247586 -42747695#1 -42747695#0 42751509#4 42751509#5 42751509#6 42751509#7 42751509#8 340606267#0 340606267#1 882785079 42747913 828700334#2"/>
    </vehicle>
    <vehicle id="131" depart="131.00">
        <route edges="42747878 42748098 42747912 875753969#0 875753969#1 617795905 678698625#0 678698625#1 340606259 42747955#0 42747955#1 42747956 250506419#0 250506419#1 42748309 908533349 250506429#1 250506429#2 250506429#3 677423246 677423247#1 262946965#0 262946965#1 24821966#4"/>
    </vehicle>
    <vehicle id="133" depart="133.00">
        <route edges="5170841#3 5170996 881624922#0 881624922#1 881624922#2 881624922#4 617999599 828700333 828700337 250506419#0 250506419#1 42748309 908533349"/>
    </vehicle>
    <vehicle id="134" depart="134.00">
        <route edges="5171050#0 5171051 5171205#0 5171205#1 5171205#2 -5171172#9 -220275673"/>
    </vehicle>
    <vehicle id="135" depart="135.00">
        <route edges="678697945#0 42747911#0 42747911#1 882785077#0 882785077#2 849265771 322744972#0 322744972#1 322744972#2 322744967 42748183 250506428 42751321#0 42751321#1 42751321#2 42748097 849265770#1 828700330 340606261#0 340606261#1 340606261#2 340606261#3 340606261#4"/>
    </vehicle>
    <vehicle id="137" depart="137.00">
        <route edges="197914056#0 387938687#0 387938687#1 262946969#1 262946969#3 262946969#6 926993943 722085187 23604841#1 5203880#0 1009203148"/>
    </vehicle>
    <vehicle id="141" depart="141.00">
        <route edges="5170993 882785082 1009203146#0 1009203146#1 42752388#1 926993944 24821966#0 24821966#3 82592229#1 262946964 322744954#0"/>
    </vehicle>
    <vehicle id="146" depart="146.00">
        <route edges="5170994 678697944 42751321#0 42751321#1 42751321#2 42748096 322744972#0 322744972#1 322744972#2 322744967 250506422 42751317#1 322744971 678697945#0 678697945#1 678697945#2 678697945#3 678697945#4 340606259 42747955#0 42747955#1 42747956 250506419#0 250506419#1 42748309 908533349 262946987#1 42747876 31706460"/>
    </vehicle>
    <vehicle id="147" depart="147.00">
        <route edges="5204786 5204786-AddedOffRampEdge 301016678 301016678-AddedOffRampEdge 42751504 678761500-AddedOnRampEdge 678761500 45683113"/>
    </vehicle>
    <vehicle id="150" depart="150.00">
        <route edges="828700334#1 828700334#2 678697945#0 678697945#1 678697945#2 678697945#3 678697945#4 340606259 250506427 42751354 679059343 678761499 678761500-AddedOnRampEdge 678761500 45683113"/>
    </vehicle>
    <vehicle id="153" depart="153.00">
        <route edges="340606267#1 882785079 301016680#0 882785077#2 849265773#0 849265773#1 882785080 42751509#1 42751509#2 669736532 884343942 878618792-AddedOnRampEdge 878618792"/>
    </vehicle>
    <vehicle id="155" depart="155.00">
        <route edges="82592241#2 -82592241#2 -82592241#1 24821966#3 82592229#1 262946964 322744954#0 322744954#1 322744954#2 322744954#3 322744954#4 322744963#0 322744963#1 262946987#1"/>
    </vehicle>
    <vehicle id="156" depart="156.00">
        <route edges="301016678 301016678-AddedOffRampEdge 42751497 42751496#0 42751496#1 250506426 250506437 250506423#0 250506423#1 340606270#0 340606270#2 340606270#3 322744967 42748183 42748184 849265773#1 882785080 1009203149#1 669737709#3 669737709#4 884247586 820461469 -884247585"/>
    </vehicle>
    <vehicle id="157" depart="157.00">
        <route edges="677423246 677423247#1 262946965#0 262946965#1 262946969#3 262946969#6 926993943 722085187 42747698 42750922#0 42750922#1 340606267#1 882785079 301016680#0 301016680#2 828700337"/>
    </vehicle>
    <vehicle id="158" depart="158.00">
        <route edges="42750922#0 42750922#1 340606267#1 882785079 301016680#0 301016680#2 828700337 250506419#0 250506419#1 887526441 881624921 887526442#0 887526442#1 5171002 42751505#1 5170848#1 5170848#2"/>
    </vehicle>
    <vehicle id="159" depart="159.00">
        <route edges="24821966#0 262946969#6 926993943 722085187 23604841#1 23334837 42750920 722087240 881581728#1"/>
    </vehicle>
    <vehicle id="160" depart="160.00">
        <route edges="722085187 42747698 42750922#0 42750922#1 340606267#1 882785079 301016680#0 301016680#2 828700337 250506419#0 250506419#1 887526441 881624921 887526442#0 887526442#1 887526440#0 887526440#1"/>
    </vehicle>
    <vehicle id="161" depart="161.00">
        <route edges="678697944 42751321#0 42751321#1 42751321#2 42748097 849265770#1 828700330 340606261#0 340606261#1 340606261#2 340606261#3 340606261#4 340606255 250506437 250506423#0 250506423#1 42748061#0 42748061#1 340606266 828700333 828700337"/>
    </vehicle>
    <vehicle id="162" depart="162.00">
        <route edges="-42750923#0 -42747637#7 -42747637#6 -42747637#5 -42747696#1 -42747696#0 42751509#7 42751509#8 340606267#0 340606267#1 882785079 301016680#0 301016680#2 828700337 250506419#0 250506419#1 887526441 881624921 -42751499 881624922#4 617999599"/>
    </vehicle>
    <vehicle id="163" depart="163.00">
        <route edges="387938685 322744965#0 387938687#0 387938687#1 262946969#1 262946969#3 262946969#6 926993943 722085187 23604841#1 23334837 42750920 722087240 881581728#1"/>
    </vehicle>
    <vehicle id="165" depart="165.00">
        <route edges="678697944 42751321#0 42751321#1 42751321#2 42748096 322744972#0 322744972#1 322744972#2 322744967 250506422 42751317#1 322744971 678697945#0 678697945#1 678697945#2 678697945#3 678697945#4 340606259 42747955#0 42747955#1 42747956 250506419#0 250506419#1 42748309 908533349 250506429#1 250506429#2 250506429#3 677423246 677423247#1 82592227 262946964 322744954#0 322744954#1 322744954#2 322744954#3 322744954#4 82592219 322744961"/>
    </vehicle>
    <vehicle id="168" depart="168.00">
        <route edges="262946987#1 42747876 887526443 887526445 42751496#0 42751496#1 250506426 250506437 250506423#0 250506423#1 42748061#0 42748061#1 340606266 828700333 828700335 678698625#0 678698625#1 340606259 250506427 42751354 679059343 678761499 678761500-AddedOnRampEdge 678761500"/>
    </vehicle>
    <vehicle id="171" depart="171.00">
        <route edges="-42750923#0 -42747637#7 -42747637#6 -42747637#5 -42747696#1 -42747696#0 42751509#7 42747538 42750921#1 42752388#1 926993944 24821966#0 24821966#3 24821966#4 262946969#1"/>
    </vehicle>
    <vehicle id="173" depart="173.00">
        <route edges="884247586 -884247586 -42747695#1 -42747695#0 42751509#4 42751509#5 42751509#6 42751509#7 42747538 42750921#1 42752388#1 926993944 24821966#0 24821966#3 24821966#4 387938685 322744965#0 322744965#1"/>
    </vehicle>
    <vehicle id="174" depart="174.00">
        <route edges="5170996 881624922#0 881624922#1 881624922#2 881624922#4 617999599 828700333 828700337 250506419#0 250506419#1 42748309"/>
    </vehicle>
    <vehicle id="175" depart="175.00">
        <route edges="887526445 42751496#0 42751496#1 250506426 250506437 250506423#0 250506423#1 42748061#0 42748061#1 340606266 828700333 828700335 678698625#0 678698625#1 340606259 250506427 42751354 679059343 678761499 678761500-AddedOnRampEdge 678761500 45683113"/>
    </vehicle>
    <vehicle id="176" depart="176.00">
        <route edges="881624922#4 617999599 828700333 828700337 250506419#0 250506419#1 42748309 908533349 250506429#1 250506429#2 250506429#3 677423246 677423247#1 262946965#0 262946965#1 262946969#3 262946969#6 926993943 722085187 23604841#1 5203880#0 1009203148"/>
    </vehicle>
    <vehicle id="178" depart="178.00">
        <route edges="882785082 1009203146#0 1009203146#1 42752388#1 926993944 24821966#0 24821966#3 82592229#1 262946964 322744954#0 322744954#1 322744954#2"/>
    </vehicle>
    <vehicle id="180" depart="180.00">
        <route edges="5203881 61886808 82592226 340606267#0 340606267#1 882785079 42747913 828700334#2 678697945#0 678697945#1 678697945#2 678697945#3 678697945#4 340606259 250506427 678761498 42751326 340606281-AddedOnRampEdge 340606281"/>
    </vehicle>
    <vehicle id="181" depart="181.00">
        <route edges="5170841#3 5170832 882785082 1009203146#0 1009203146#1 42752388#1"/>
    </vehicle>
    <vehicle id="191" depart="191.00">
        <route edges="340606267#1 882785079 301016680#0 882785077#2 849265773#0 849265773#1 882785080 1009203149#1 -669737709#2 -669737709#1 -669737709#0 -42750923#5 -42750923#4 42750923#4"/>
    </vehicle>
    <vehicle id="192" depart="192.00">
        <route edges="42750918 1009203146#1 42752388#1 926993944 24821966#0 262946969#6 926993943 722085187 42747698 42750922#0 42750922#1 340606267#1 882785079 301016680#0 882785077#2 849265771 322744972#0 322744972#1 322744972#2 322744967 42748183 250506428 42751321#0 42751321#1 42751321#2 42748097 849265770#1 828700330 340606261#0"/>
    </vehicle>
    <vehicle id="196" depart="196.00">
        <route edges="340606264 678697944 42751321#0 42751321#1 42751321#2 42748096 322744972#0 322744972#1 322744972#2 322744967 250506422 42747877 42751318 881581728#1 5171001 678761499 678761500-AddedOnRampEdge 678761500 45683113"/>
    </vehicle>
    <vehicle id="197" depart="197.00">
        <route edges="-155218281 -42747700#2 -42747700#0 -42750923#1 -42750923#0 -42747637#7 -42747637#6 -42747637#5 -42747696#1 -42747696#0 42751509#7 42747538 42750921#1 42752388#1 926993944 24821966#0 24821966#3 82592229#1 262946964 322744954#0 322744954#1 322744954#2 322744954#3 322744954#4 322744963#0 322744963#1 322744973#1"/>
    </vehicle>
</routes>
