<?xml version="1.0" encoding="UTF-8"?>

<!-- generated on 2022-01-31 16:16:25 by Eclipse SUMO duarouter Version 1.9.2
<configuration xmlns:xsi="http://www.w3.org/2001/XMLSchema-instance" xsi:noNamespaceSchemaLocation="http://sumo.dlr.de/xsd/duarouterConfiguration.xsd">

    <input>
        <net-file value="osm.net.xml"/>
        <route-files value="osm.passenger.trips.xml"/>
    </input>

    <output>
        <output-file value="routes.rou.xml"/>
        <alternatives-output value="routes.rou.alt.xml"/>
    </output>

    <time>
        <begin value="0"/>
        <end value="3600"/>
    </time>

    <report>
        <no-warnings value="true"/>
        <ignore-errors value="true"/>
        <no-step-log value="true"/>
    </report>

</configuration>
-->

<routes xmlns:xsi="http://www.w3.org/2001/XMLSchema-instance" xsi:noNamespaceSchemaLocation="http://sumo.dlr.de/xsd/routes_file.xsd">
    <vType id="veh_passenger" vClass="passenger"/>
    <vehicle id="veh0" type="veh_passenger" depart="0.00" departLane="best" departSpeed="max">
        <route edges="5170841#0 5170841#3 5170996 881624922#0 881624922#1 881624922#2 881624922#4 617999599 828700332#1 849265773#0 849265773#1 882785080 1009203149#1 -669737709#2 -669737709#1 -669737709#0 -42750923#5 -42750923#4 -42750923#3 -42750923#2 -42750923#1 -42750923#0 -42747637#7 -42747637#6 -42747637#5 -42747637#4 -42747637#3"/>
    </vehicle>
    <vehicle id="veh2" type="veh_passenger" depart="2.84" departLane="best">
        <route edges="5171172#7 -5171172#7 -5171172#6 -5171172#5 5171159#0 5171116#6 5171116#7"/>
    </vehicle>
    <vehicle id="veh4" type="veh_passenger" depart="5.67" departLane="best">
        <route edges="387938685 322744965#0 387938687#0 387938687#1 262946969#1 262946969#3 262946969#6 926993943 722085187 42747698 42750922#0 42747699#0 -42747700#3 -42747700#2 -42747700#0 -42750923#1 -42750923#0 -42747637#7 -42747637#6 -42747637#5"/>
    </vehicle>
    <vehicle id="veh6" type="veh_passenger" depart="8.51" departLane="best">
        <route edges="5170992 880273111 678697943 678697942#0 678697942#1 250506423#0 250506423#1 340606270#0 340606270#2 340606270#3 322744967 42748183 42748184 849265773#1 882785080 1009203149#1 -669737709#2 -669737709#1 -669737709#0 -42750923#5 -42750923#4 42750923#4"/>
    </vehicle>
    <vehicle id="veh8" type="veh_passenger" depart="11.34" departLane="best">
        <route edges="677425161#1 535068834#0 535068834#1 677428370#1 677428369#1 322744954#2 322744954#3 322744954#4 82592219 322744961 677428366 677423247#1 262946965#0 262946965#1 262946969#3 262946969#6 926993943 722085187 42747698 42750922#0 42747699#0 -42747700#3 155218281 -155218283#2"/>
    </vehicle>
    <vehicle id="veh11" type="veh_passenger" depart="15.59" departLane="best">
        <route edges="882785076#3 828700334#0 828700334#1 828700334#2 678697945#0 678697945#1 678697945#2 678697945#3 678697945#4 340606259 42747955#0 42747955#1 42747956 250506419#0 250506419#1 42748309 908533349 322744973#1 387938685 322744965#0"/>
    </vehicle>
    <vehicle id="veh12" type="veh_passenger" depart="17.01" departLane="best">
        <route edges="-5171116#10 5171133#1 5171133#2 -5171163#3 5171155#0 5171155#1 5171155#2 -5171116#3"/>
    </vehicle>
    <vehicle id="veh15" type="veh_passenger" depart="21.26" departLane="best">
        <route edges="42750921#1 42752388#1 926993944 24821966#0 262946969#6 926993943 722085187 42747698 42750922#0 42747699#0 42747699#1 42750923#5 669737711 669737709#1 669737709#2 669737709#3 669737709#4 884247586"/>
    </vehicle>
    <vehicle id="veh16" type="veh_passenger" depart="22.68" departLane="best">
        <route edges="340606253 250506426 250506437 250506423#0 250506423#1 340606270#0 340606270#2 340606270#3 322744967 250506422 42747877 42751318"/>
    </vehicle>
    <vehicle id="veh17" type="veh_passenger" depart="24.10" departLane="best">
        <route edges="678697945#1 678697945#2 678697945#3 678697945#4 340606259 250506427 42751354 679059343 678761499 678761500-AddedOnRampEdge 678761500 45683113"/>
    </vehicle>
    <vehicle id="veh20" type="veh_passenger" depart="28.35" departLane="best">
        <route edges="170848626#1 -170848626#1 -170848626#0 -884247585 -884247586 -42747695#1 -42747695#0 42751509#4 42751509#5 42751509#6 42751509#7 42747538 42750921#1 42752388#1 926993944 24821966#0 24821966#3 24821966#4 262946969#1"/>
    </vehicle>
    <vehicle id="veh23" type="veh_passenger" depart="32.60" departLane="best" departSpeed="max">
        <route edges="5170841#0 5170841#3 5170996 881624922#0 881624922#1 881624922#2 881624922#4 617999599 828700333 882785076#1 882785077#2 849265771 322744972#0 322744972#1 322744972#2"/>
    </vehicle>
    <vehicle id="veh24" type="veh_passenger" depart="34.02" departLane="best">
        <route edges="322744972#1 322744972#2 322744967 42748183 42748184 849265773#1 882785080 1009203149#1 -669737709#2 -669737709#1 -669737709#0 -42750923#5 -42750923#4 155218283#0 155218283#1 155218283#2"/>
    </vehicle>
    <vehicle id="veh25" type="veh_passenger" depart="35.44" departLane="best">
        <route edges="250506419#1 887526441 881624921 -42751499 881624922#4 617999599 828700332#1 849265773#0 849265773#1 882785080 42751509#1 42751509#2 669736532 884343942 878618792-AddedOnRampEdge 878618792"/>
    </vehicle>
    <vehicle id="veh28" type="veh_passenger" depart="39.69" departLane="best">
        <route edges="-669737709#2 -669737709#1 -669737709#0 -42750923#5 -42750923#4 -42750923#3 -42750923#2 -42750923#1 -42750923#0 -42747637#7 -42747637#6 -42747637#5 -42747696#1 -42747696#0 42751509#7 42751509#8 340606267#0 340606267#1 882785079 301016680#0 882785077#2 849265771 322744972#0 322744972#1 322744972#2 322744967 42748183 250506428 42751321#0 42751321#1 42751321#2 42748097 849265770#1 828700330 340606261#0"/>
    </vehicle>
    <vehicle id="veh29" type="veh_passenger" depart="41.11" departLane="best">
        <route edges="887526445 42751496#0 42751496#1 250506426 250506437 250506423#0 250506423#1 42748061#0 42748061#1 340606266 828700333 828700337 250506419#0 250506419#1 887526441 881624921 887526442#0 887526442#1 5171002 42751505#1 5170848#1 5170848#2"/>
    </vehicle>
    <vehicle id="veh31" type="veh_passenger" depart="43.94" departLane="best">
        <route edges="678698625#1 340606259 42747955#0 42747955#1 42747956 250506419#0 250506419#1 42748309 908533349 322744973#1 387938685 322744965#0 -535068843#0 -964816689 964816689 535068843#0"/>
    </vehicle>
    <vehicle id="veh32" type="veh_passenger" depart="45.36" departLane="best">
        <route edges="171140397 -171140397 250506420#3 881624922#0 881624922#1 881624922#2 881624922#4 617999599 828700332#1 849265773#0 849265773#1 882785080 1009203149#1 -669737709#2 -669737709#1 -669737709#0 -42750923#5 -42750923#4 -42750923#3 -42750923#2 -42750923#1 -42750923#0 -42747637#7 -42747637#6"/>
    </vehicle>
    <vehicle id="veh33" type="veh_passenger" depart="46.78" departLane="best">
        <route edges="262946969#1 82592229#1 262946964 322744954#0 322744954#1 322744954#2 322744954#3 322744954#4 322744963#0 82592240 250506429#3"/>
    </vehicle>
    <vehicle id="veh35" type="veh_passenger" depart="49.61" departLane="best">
        <route edges="82592221#2 677425160 677425161#0 677425161#1 535068834#0 535068834#1 677428370#1 677428369#1 322744954#2 322744954#3 322744954#4 322744963#0 322744963#1 262946987#1 42747876 887526443 887526445 42751496#0 42751496#1 250506426 250506437 250506423#0 250506423#1 42748061#0 42748061#1 340606266 828700333 882785076#1 301016680#2"/>
    </vehicle>
    <vehicle id="veh36" type="veh_passenger" depart="51.03" departLane="best">
        <route edges="5170998 -42751499 881624922#4 617999599 828700332#1 849265773#0 849265773#1 882785080 1009203149#1 -669737709#2 -669737709#1 -669737709#0 -42750923#5 -42750923#4 -42750923#3 -42750923#2 -42750923#1 -42750923#0 -42747637#7 -42747637#6 -42747637#5 -42747696#1 -42747696#0 42751509#7 42751509#8 340606267#0"/>
    </vehicle>
    <vehicle id="veh37" type="veh_passenger" depart="52.45" departLane="best" departSpeed="max">
        <route edges="849265769 882785080 42751509#1 42747694#0 42747694#1"/>
    </vehicle>
    <vehicle id="veh38" type="veh_passenger" depart="53.87" departLane="best">
        <route edges="250506419#0 250506419#1 887526441 881624921 887526442#0 887526442#1 887526440#0 887526440#1 250506420#1"/>
    </vehicle>
    <vehicle id="veh39" type="veh_passenger" depart="55.29" departLane="best">
        <route edges="42751321#1 42751321#2 42748096 322744972#0 322744972#1 322744972#2 322744967 250506422 42751317#1 322744971 678697945#0 678697945#1 678697945#2 678697945#3 678697945#4 340606259 42747955#0 42747955#1 42747956 250506419#0 250506419#1 42748309 908533349 250506429#1"/>
    </vehicle>
    <vehicle id="veh40" type="veh_passenger" depart="56.70" departLane="best">
        <route edges="42751509#3 42751509#4 42751509#5 42751509#6 42751509#7 42751509#8 340606267#0 340606267#1 882785079 301016680#0 882785077#2 849265771 322744972#0 322744972#1 322744972#2 322744967 42748183 250506428 42751321#0 42751321#1 42751321#2 42748097 849265770#1 828700330"/>
    </vehicle>
    <vehicle id="veh41" type="veh_passenger" depart="58.12" departLane="best">
        <route edges="340606266 828700333 882785076#1 882785077#2 849265773#0 849265773#1 882785080 1009203149#1 669737709#3 669737709#4 884247586 820461469 170848626#0 170848626#1"/>
    </vehicle>
    <vehicle id="veh42" type="veh_passenger" depart="59.54" departLane="best">
        <route edges="926993944 24821966#0 262946969#6 926993943 722085187 42747698 42750922#0 42750922#1 340606267#1 882785079 42747913 828700334#2 678697945#0 678697945#1 678697945#2 678697945#3 678697945#4 340606259 42747955#0 42747955#1 42747956"/>
    </vehicle>
    <vehicle id="veh45" type="veh_passenger" depart="63.79" departLane="best">
        <route edges="669737711 -669737709#0 -42750923#5 -42750923#4 -42750923#3 -42750923#2 -42750923#1 -42750923#0 -42747637#7 -42747637#6 -42747637#5 -42747696#1 -42747696#0 42751509#7 42747538 42750921#1 42752388#1 926993944 24821966#0 24821966#3 24821966#4 387938685 322744965#0 387938687#0 387938687#1"/>
    </vehicle>
    <vehicle id="veh46" type="veh_passenger" depart="65.21" departLane="best">
        <route edges="-42747700#3 -42747700#2 -42747700#0 -42750923#1 -42750923#0 -42747637#7 -42747637#6 -42747637#5 -42747696#1 -42747696#0 42751509#7 42751509#8 340606267#0 340606267#1 882785079 301016680#0 882785077#2 849265771 322744972#0 322744972#1 322744972#2 322744967 42748183 250506428 42751321#0 42751321#1 42751321#2 42748097 849265770#1 828700330 340606261#0 340606261#1"/>
    </vehicle>
    <vehicle id="veh47" type="veh_passenger" depart="66.63" departLane="best">
        <route edges="926993944 24821966#0 262946969#6 926993943 722085187 23604841#1 23334837 42750920"/>
    </vehicle>
    <vehicle id="veh51" type="veh_passenger" depart="72.30" departLane="best">
        <route edges="250506419#0 250506419#1 887526441 881624921 887526442#0 887526442#1 5171002 42751505#1 5170848#1 5170848#2"/>
    </vehicle>
    <vehicle id="veh53" type="veh_passenger" depart="75.13" departLane="best">
        <route edges="42747648#0 -42747648#0 -884247585 -884247586 -42747695#1 -42747695#0 42751509#4 42751509#5 42751509#6 42751509#7 42751509#8 340606267#0 340606267#1 882785079 301016680#0 301016680#2 828700337 250506419#0 250506419#1 887526441 881624921 -42751499 881624922#4"/>
    </vehicle>
    <vehicle id="veh54" type="veh_passenger" depart="76.55" departLane="best">
        <route edges="42747911#0 42747911#1 882785077#0 301016680#2 828700337 250506419#0 250506419#1 42748309 908533349 250506429#1 250506429#2 250506429#3 677423246 677423247#1 262946965#0 -82592231#2 -82592231#1"/>
    </vehicle>
    <vehicle id="veh55" type="veh_passenger" depart="77.97" departLane="best" departSpeed="max">
        <route edges="849265769 882785080 1009203149#1 -669737709#2 -669737709#1 -669737709#0 -42750923#5 -42750923#4 -42750923#3 -42750923#2 -42750923#1 -42750923#0 -42747637#7 -42747637#6 -42747637#5 -42747696#1 -42747696#0 42751509#7 42747538 42750921#1 42752388#1 926993944 24821966#0 24821966#3 82592229#1 262946964 322744954#0 82592221#0"/>
    </vehicle>
    <vehicle id="veh56" type="veh_passenger" depart="79.38" departLane="best">
        <route edges="262946962#1 262946962#2 262946962#3 262946987#1 42747876 31706460 887526442#0 887526442#1 5171002 42751505#1 5170848#1 5170848#2"/>
    </vehicle>
    <vehicle id="veh58" type="veh_passenger" depart="82.22" departLane="best" departSpeed="max">
        <route edges="5204786 5204786-AddedOffRampEdge 5203881 61886808 82592226 340606267#0 340606267#1 882785079 301016680#0 882785077#2 849265773#0 849265773#1 882785080 1009203149#1 -669737709#2 -669737709#1 -669737709#0 -42750923#5 -42750923#4 -42750923#3 -42750923#2 42750923#2"/>
    </vehicle>
    <vehicle id="veh59" type="veh_passenger" depart="83.64" departLane="best">
        <route edges="617999599 828700332#1 849265773#0 849265773#1 882785080 1009203149#1 -669737709#2 -669737709#1 -669737709#0 -42750923#5 -42750923#4 -42750923#3 -42750923#2 -42750923#1 -42750923#0 -42747637#7 -42747637#6 -42747637#5 -42747696#1 -42747696#0 42751509#7 42747538 42750921#1"/>
    </vehicle>
    <vehicle id="veh60" type="veh_passenger" depart="85.05" departLane="best">
        <route edges="-155218281 -42747700#2 -42747700#0 -42750923#1 -42750923#0 -42747637#7 -42747637#6 -42747637#5 -42747696#1 -42747696#0 42751509#7 42747538 42750921#1 42752388#1 926993944 24821966#0 24821966#3 82592229#1 262946964 322744954#0 322744954#1 322744954#2 322744954#3"/>
    </vehicle>
    <vehicle id="veh61" type="veh_passenger" depart="86.47" departLane="best">
        <route edges="-42747637#1 42747637#1 -42747697#2 -42747697#1 -42747697#0 42751509#6 42751509#7 42751509#8 340606267#0 340606267#1 882785079 301016680#0 882785077#2 849265773#0 849265773#1 882785080 42751509#1 42751509#2 669736532 884343942 878618792-AddedOnRampEdge 878618792"/>
    </vehicle>
    <vehicle id="veh62" type="veh_passenger" depart="87.89" departLane="best">
        <route edges="82592221#2 677425160 677425161#0 677425161#1 535068834#0 535068834#1 677428370#1 677428369#1 322744954#2 322744954#3 322744954#4 322744963#0 322744963#1 262946987#1 42747876 887526443 887526445 42751496#0 42751496#1 250506426 250506437 250506423#0 250506423#1 340606270#0 340606270#2 340606270#3 322744967 250506422 42751317#1 322744971 678697945#0 678697945#1 678697945#2"/>
    </vehicle>
    <vehicle id="veh63" type="veh_passenger" depart="89.31" departLane="best">
        <route edges="262946964 322744954#0 322744954#1 322744954#2 322744954#3 322744954#4 82592219 322744961 677428366 677423247#1 262946965#0 262946965#1 262946969#3 262946969#6 926993943 722085187 42747698 42750922#0 42747699#0 -42747700#3 -42747700#2 -42747700#0"/>
    </vehicle>
    <vehicle id="veh64" type="veh_passenger" depart="90.72" departLane="best">
        <route edges="82592221#2 677425160 677425161#0 677425161#1 535068834#0 535068834#1 677428370#1 677428369#1 322744954#2 322744954#3 322744954#4 322744963#0 322744963#1 262946987#1 42747876 31706460 887526442#0 887526442#1 887526440#0 887526440#1 250506420#1 250506420#3 881624922#0"/>
    </vehicle>
    <vehicle id="veh68" type="veh_passenger" depart="96.39" departLane="best">
        <route edges="42747697#0 -42747697#0 42751509#6 42751509#7 42751509#8 340606267#0 340606267#1 882785079 301016680#0 882785077#2 849265771 322744972#0 322744972#1 322744972#2 322744967 250506422 42751317#1"/>
    </vehicle>
    <vehicle id="veh69" type="veh_passenger" depart="97.81" departLane="best">
        <route edges="250506419#0 250506419#1 42748309 908533349 250506429#1 250506429#2 250506429#3 677423246 677423247#1 82592227 262946964 322744954#0 82592221#0"/>
    </vehicle>
    <vehicle id="veh72" type="veh_passenger" depart="102.07" departLane="best">
        <route edges="155218281 -155218281 -42747700#2 -42747700#0 -42750923#1 -42750923#0 -42747637#7 -42747637#6 -42747637#5 -42747696#1 -42747696#0 42751509#7 42751509#8 340606267#0 340606267#1 882785079 301016680#0"/>
    </vehicle>
    <vehicle id="veh74" type="veh_passenger" depart="104.90" departLane="best">
        <route edges="42747637#2 42747637#3 42747637#4 -42747696#1 -42747696#0 42751509#7 42751509#8 340606267#0 340606267#1 882785079 301016680#0 882785077#2 849265771 322744972#0 322744972#1 322744972#2 322744967 42748183 250506428 42751321#0 42751321#1 42751321#2 42748097"/>
    </vehicle>
    <vehicle id="veh75" type="veh_passenger" depart="106.32" departLane="best">
        <route edges="31706460 -42751499 881624922#4 617999599 828700332#1 849265773#0 849265773#1 882785080 1009203149#1 -669737709#2 -669737709#1 -669737709#0 -42750923#5 -42750923#4 -42750923#3 -42750923#2 -42750923#1 -42750923#0 -42747637#7 -42747637#6 -42747637#5 -42747696#1 -42747696#0 42751509#7"/>
    </vehicle>
    <vehicle id="veh76" type="veh_passenger" depart="107.74" departLane="best">
        <route edges="171140397 -171140397 250506420#3 881624922#0 881624922#1 881624922#2 881624922#4 617999599 828700332#1 849265773#0 849265773#1 882785080 1009203149#1 669737709#3 669737709#4 884247586 820461469 170848626#0 170848626#1"/>
    </vehicle>
    <vehicle id="veh78" type="veh_passenger" depart="110.57" departLane="best">
        <route edges="171140397 -171140397 250506420#3 881624922#0 881624922#1 881624922#2 881624922#4 617999599 828700333 882785076#1 882785076#3 828700334#0 828700334#1"/>
    </vehicle>
    <vehicle id="veh81" type="veh_passenger" depart="114.82" departLane="best" departSpeed="max">
        <route edges="164138226#0 5171116#1 5171116#2 5171116#3 5171116#4 5171147#3 -5171172#3 -5171172#2 -5171163#1"/>
    </vehicle>
    <vehicle id="veh83" type="veh_passenger" depart="117.66" departLane="best">
        <route edges="42747696#1 42747637#5 42747637#6 42747637#7 42747637#8 42750923#1 42750923#2 42750923#3 42750923#4 42750923#5 669737711 669737709#1"/>
    </vehicle>
    <vehicle id="veh84" type="veh_passenger" depart="119.08" departLane="best">
        <route edges="677425161#1 535068834#0 535068834#1 677428370#1 677428369#1 322744954#2 322744954#3 322744954#4 82592219 322744961 677428366 677423247#1 262946965#0 262946965#1 262946969#3 262946969#6 926993943 722085187 42747698 42750922#0 42747699#0 42747699#1 42750923#5 669737711 669737709#1 669737709#2 669737709#3 669737709#4 884247586 -884247586"/>
    </vehicle>
    <vehicle id="veh86" type="veh_passenger" depart="121.91" departLane="best">
        <route edges="387938685 322744965#0 387938687#0 387938687#1 262946969#1 262946969#3 262946969#6 926993943 722085187 42747698 42750922#0 42747699#0 -42747700#3 -42747700#2 -42747700#0 -42750923#1 -42750923#0 -42747637#7 -42747637#6 -42747637#5 -42747696#1 42747696#1"/>
    </vehicle>
    <vehicle id="veh88" type="veh_passenger" depart="124.75" departLane="best">
        <route edges="340606267#0 340606267#1 882785079 301016680#0 301016680#2 828700337 250506419#0 250506419#1 42748309 908533349 322744973#1 387938685 322744965#0"/>
    </vehicle>
    <vehicle id="veh90" type="veh_passenger" depart="127.58" departLane="best">
        <route edges="-964816689 964816689 535068843#0 387938687#0 387938687#1 262946969#1 262946969#3 262946969#6 926993943 722085187 42747698 42750922#0 42747699#0 42747699#1 42750923#5 669737711 669737709#1 669737709#2 669737709#3 669737709#4 884247586 820461469 42747648#0 42747648#1"/>
    </vehicle>
    <vehicle id="veh91" type="veh_passenger" depart="129.00" departLane="best">
        <route edges="387938685 322744965#0 387938687#0 387938687#1 262946962#1 262946962#2"/>
    </vehicle>
    <vehicle id="veh94" type="veh_passenger" depart="133.25" departLane="best">
        <route edges="42750923#5 -42750923#5 -42750923#4 -42750923#3 -42750923#2 -42750923#1 -42750923#0 -42747637#7 -42747637#6 -42747637#5 -42747696#1"/>
    </vehicle>
    <vehicle id="veh95" type="veh_passenger" depart="134.67" departLane="best">
        <route edges="964816689 535068843#0 387938687#0 387938687#1 262946969#1 262946969#3 262946969#6 926993943 722085187 42747698 42750922#0 42750922#1 340606267#1 882785079 42747913 828700334#2 678697945#0 678697945#1 678697945#2 678697945#3 678697945#4"/>
    </vehicle>
    <vehicle id="veh96" type="veh_passenger" depart="136.09" departLane="best">
        <route edges="882785080 42751509#1 42751509#2 669736532 884343942 878618792-AddedOnRampEdge 878618792"/>
    </vehicle>
    <vehicle id="veh99" type="veh_passenger" depart="140.34" departLane="best">
        <route edges="340606266 828700333 882785076#1 882785077#2 849265773#0 849265773#1 882785080 1009203149#1 -669737709#2 -669737709#1 -669737709#0 -42750923#5 -42750923#4 -42750923#3 -42750923#2 42747700#0 -42747700#0"/>
    </vehicle>
    <vehicle id="veh100" type="veh_passenger" depart="141.76" departLane="best">
        <route edges="340606253 250506426 250506437 250506423#0 250506423#1 42748061#0 42748061#1 340606266 828700333 828700337 250506419#0 250506419#1 887526441 881624921 887526442#0 887526442#1"/>
    </vehicle>
    <vehicle id="veh101" type="veh_passenger" depart="143.17" departLane="best">
        <route edges="250506419#0 250506419#1 887526441 881624921 -42751499 881624922#4 617999599 828700332#1 849265773#0 849265773#1 882785080 1009203149#1 -669737709#2 -669737709#1 669737709#1"/>
    </vehicle>
    <vehicle id="veh102" type="veh_passenger" depart="144.59" departLane="best">
        <route edges="42747648#1 -42747648#1 -42747648#0 -884247585 -884247586 -42747695#1 -42747695#0 42751509#4 42751509#5 42751509#6 42751509#7 42747538 42750921#1 42752388#1 926993944 24821966#0 24821966#3 24821966#4 387938685 322744965#0 387938687#0 387938687#1"/>
    </vehicle>
    <vehicle id="veh103" type="veh_passenger" depart="146.01" departLane="best">
        <route edges="882785076#3 828700334#0 828700334#1 828700334#2 678697945#0 678697945#1 678697945#2 678697945#3 678697945#4 340606259 42747955#0 42747955#1 42747956 250506419#0 250506419#1 42748309 908533349 250506429#1 250506429#2 250506429#3 677423246 677423247#1 262946965#0 262946965#1 262946969#3 262946969#6 926993943"/>
    </vehicle>
    <vehicle id="veh106" type="veh_passenger" depart="150.26" departLane="best">
        <route edges="882785080 42751509#1 42751509#2 42751509#3"/>
    </vehicle>
    <vehicle id="veh108" type="veh_passenger" depart="153.10" departLane="best">
        <route edges="42747911#1 882785077#0 882785077#2 849265771 322744972#0 322744972#1 322744972#2 322744967 250506422 42751317#1 42747878 42748098 679059342"/>
    </vehicle>
    <vehicle id="veh109" type="veh_passenger" depart="154.52" departLane="best">
        <route edges="-535068843#0 -964816689 964816689 535068843#0 387938687#0 387938687#1 262946962#1 262946962#2 262946962#3 262946987#1 42747876 887526443 887526445 42751496#0 42751496#1 250506426 250506437 250506423#0 250506423#1 42748061#0 42748061#1 340606266 828700333 882785076#1 882785077#2"/>
    </vehicle>
    <vehicle id="veh113" type="veh_passenger" depart="160.19" departLane="best">
        <route edges="82592240 250506429#3 677423246 677423247#1 82592227 262946964 322744954#0 322744954#1 322744954#2 322744954#3 322744954#4 322744963#0 322744963#1 262946987#1 42747876 31706460 887526442#0 887526442#1 887526440#0 887526440#1 250506420#1"/>
    </vehicle>
    <vehicle id="veh114" type="veh_passenger" depart="161.60" departLane="best">
        <route edges="42751509#8 340606267#0 340606267#1 882785079 42747913 828700334#2 678697945#0 678697945#1 678697945#2 678697945#3 678697945#4 340606259 250506427 42751354 679059343 678761499 678761500-AddedOnRampEdge 678761500 45683113"/>
    </vehicle>
    <vehicle id="veh116" type="veh_passenger" depart="164.44" departLane="best">
        <route edges="42748097 849265770#1 828700330 340606261#0 340606261#1 340606261#2 340606261#3 340606261#4 340606255 250506437 250506423#0 250506423#1 340606270#0 340606270#2 340606270#3 322744967 42748183 42748184 849265773#1 882785080 42751509#1 42751509#2 669736532 884343942 878618792-AddedOnRampEdge 878618792"/>
    </vehicle>
    <vehicle id="veh118" type="veh_passenger" depart="167.27" departLane="best" departSpeed="max">
        <route edges="197914056#0 387938687#0 387938687#1 262946969#1 262946969#3 262946969#6 926993943 722085187 42747698 42750922#0 42747699#0 -42747700#3 -42747700#2 -42747700#0 -42750923#1 -42750923#0 -42747637#7 -42747637#6 -42747637#5 -42747696#1 -42747696#0 42751509#7 42751509#8 340606267#0"/>
    </vehicle>
    <vehicle id="veh121" type="veh_passenger" depart="171.53" departLane="best">
        <route edges="964816689 535068843#0 387938687#0 387938687#1 262946969#1 262946969#3 262946969#6 926993943 722085187 42747698 42750922#0 42747699#0 -42747700#3 -42747700#2 -42747700#0 -42750923#1 -42750923#0 -42747637#7 -42747637#6 -42747637#5 -42747696#1 -42747696#0 42751509#7 42747538 42750921#1 42752388#1 926993944"/>
    </vehicle>
    <vehicle id="veh123" type="veh_passenger" depart="174.36" departLane="best">
        <route edges="250506419#0 250506419#1 887526441 881624921 -42751499 881624922#4 617999599 828700332#1 849265773#0 849265773#1 882785080 42751509#1 42751509#2 669736532 884343942 878618792-AddedOnRampEdge 878618792"/>
    </vehicle>
    <vehicle id="veh126" type="veh_passenger" depart="178.61" departLane="best" departSpeed="max">
        <route edges="45683111 5170833 5170833-AddedOffRampEdge 5170992 880273111 678697943 678697942#0 678697942#1 250506423#0 250506423#1 42748061#0 42748061#1 340606266 828700333 828700337 250506419#0 250506419#1 42748309 908533349 262946987#1 42747876 887526443"/>
    </vehicle>
    <vehicle id="veh127" type="veh_passenger" depart="180.03" departLane="best">
        <route edges="5170998 -42751499 881624922#4 617999599 828700332#1 849265773#0 849265773#1 882785080 1009203149#1 -669737709#2 -669737709#1 -669737709#0 -42750923#5 -42750923#4 155218283#0 155218283#1 155218283#2 -155218283#2"/>
    </vehicle>
    <vehicle id="veh133" type="veh_passenger" depart="188.54" departLane="best">
        <route edges="5170833-AddedOffRampEdge 5170992 880273111 678697943 678697942#0 678697942#1 250506423#0 250506423#1 42748061#0 42748061#1 340606266 828700333 828700337 250506419#0 250506419#1 42748309 908533349 250506429#1"/>
    </vehicle>
    <vehicle id="veh134" type="veh_passenger" depart="189.95" departLane="best">
        <route edges="42747700#2 -42747700#2 -42747700#0 -42750923#1 -42750923#0 -42747637#7 -42747637#6 -42747637#5 -42747696#1 -42747696#0 42751509#7 42751509#8 340606267#0 340606267#1 882785079 42747913 828700334#2 678697945#0 42747911#0 42747911#1 882785077#0 882785076#3 828700334#0 828700334#1"/>
    </vehicle>
    <vehicle id="veh136" type="veh_passenger" depart="192.79" departLane="best">
        <route edges="387938685 322744965#0 387938687#0 387938687#1 262946962#1 262946962#2"/>
    </vehicle>
    <vehicle id="veh137" type="veh_passenger" depart="194.21" departLane="best">
        <route edges="-155218283#0 -42750923#3 -42750923#2 -42750923#1 -42750923#0 -42747637#7 -42747637#6 -42747637#5 -42747696#1 -42747696#0 42751509#7 42747538 42750921#1 42752388#1 926993944 24821966#0 24821966#3 82592229#1 262946964 322744954#0 82592221#0 82592221#1 82592221#2 677425160 677425161#0 677425161#1 535068834#0"/>
    </vehicle>
    <vehicle id="veh138" type="veh_passenger" depart="195.62" departLane="best" departSpeed="max">
        <route edges="5170841#0 5170841#3 5170996 881624922#0 881624922#1 881624922#2 881624922#4 5170999 887523754 340606253 250506426 250506437 250506423#0 250506423#1 340606270#0 340606270#2 340606270#3 322744967 42748183 250506428"/>
    </vehicle>
    <vehicle id="veh140" type="veh_passenger" depart="198.46" departLane="best">
        <route edges="387938687#0 387938687#1 262946969#1 262946969#3 262946969#6 926993943 722085187 42747698 42750922#0 42747699#0 42747699#1 42750923#5 669737711 669737709#1 669737709#2 669737709#3 669737709#4 884247586 820461469 170848626#0 -170848626#0"/>
    </vehicle>
    <vehicle id="veh141" type="veh_passenger" depart="199.88" departLane="best">
        <route edges="-42750923#5 -42750923#4 -42750923#3 -42750923#2 -42750923#1 -42750923#0 -42747637#7 -42747637#6 -42747637#5 -42747696#1 -42747696#0 42751509#7 42747538 42750921#1 42752388#1 926993944 24821966#0 24821966#3 82592229#1 262946964 322744954#0 322744954#1 322744954#2 322744954#3 322744954#4 82592219 322744961 677428366 677423247#1 82592227"/>
    </vehicle>
    <vehicle id="veh142" type="veh_passenger" depart="201.29" departLane="best">
        <route edges="828700334#1 828700334#2 678697945#0 42747911#0 42747911#1 882785077#0 882785077#2 849265773#0 849265773#1 882785080 1009203149#1 -669737709#2 -669737709#1 -669737709#0 -42750923#5 42750923#5"/>
    </vehicle>
    <vehicle id="veh143" type="veh_passenger" depart="202.71" departLane="best">
        <route edges="678697945#3 678697945#4 340606259 42747955#0 42747955#1 250506433 875753969#0 875753969#1 678698624 882785076#1 882785077#2 849265773#0 849265773#1 882785080 42751509#1 42751509#2 42751509#3 42751509#4 42751509#5"/>
    </vehicle>
    <vehicle id="veh144" type="veh_passenger" depart="204.13" departLane="best">
        <route edges="262946964 322744954#0 322744954#1 322744954#2 322744954#3 322744954#4 322744963#0 322744963#1 262946987#1 42747876 31706460 -42751499 881624922#4 617999599 828700332#1"/>
    </vehicle>
    <vehicle id="veh148" type="veh_passenger" depart="209.80" departLane="best">