<?xml version="1.0" encoding="UTF-8"?>
<!-- generated on 2022-02-15 16:45:33.945194 by $Id$ v1_9_2+0000-4206cfae24
  options: -n osm.net.xml -r random200.rou.xml -e 200 -l
-->
<routes xmlns:xsi="http://www.w3.org/2001/XMLSchema-instance" xsi:noNamespaceSchemaLocation="http://sumo.dlr.de/xsd/routes_file.xsd">
    <trip id="0" depart="0.00" from="5170996" to="-42750923#0"/>
    <trip id="1" depart="1.00" from="322744961" to="262946987#1"/>
    <trip id="2" depart="2.00" from="5204786" to="5171116#7"/>
    <trip id="3" depart="3.00" from="82592227" to="-669737709#1"/>
    <trip id="4" depart="4.00" from="42751326" to="-45658370"/>
    <trip id="5" depart="5.00" from="262946987#1" to="42751509#6"/>
    <trip id="6" depart="6.00" from="-42750923#2" to="262946969#3"/>
    <trip id="7" depart="7.00" from="5171002" to="45683113"/>
    <trip id="8" depart="8.00" from="262946987#1" to="5170833"/>
    <trip id="9" depart="9.00" from="678697944" to="-220275673"/>
    <trip id="10" depart="10.00" from="678697943" to="5171155#2"/>
    <trip id="11" depart="11.00" from="42747637#0" to="24821966#4"/>
    <trip id="12" depart="12.00" from="882785082" to="387938687#1"/>
    <trip id="13" depart="13.00" from="-669737709#4" to="-820461462"/>
    <trip id="14" depart="14.00" from="678761500" to="5170841#3"/>
    <trip id="15" depart="15.00" from="678697944" to="5203881"/>
    <trip id="16" depart="16.00" from="45683111" to="884343942"/>
    <trip id="17" depart="17.00" from="42748098" to="45683113"/>
    <trip id="18" depart="18.00" from="678761500" to="5170841#3"/>
    <trip id="19" depart="19.00" from="722085187" to="5170833"/>
    <trip id="20" depart="20.00" from="5171163#0" to="-5171116#3"/>
    <trip id="21" depart="21.00" from="262946987#1" to="322744973#1"/>
    <trip id="22" depart="22.00" from="-5171172#7" to="301016678"/>
    <trip id="23" depart="23.00" from="-884247585" to="322744965#1"/>
    <trip id="24" depart="24.00" from="5170993" to="42747877"/>
    <trip id="25" depart="25.00" from="42747911#1" to="262946987#1"/>
    <trip id="26" depart="26.00" from="301016680#0" to="881624922#4"/>
    <trip id="27" depart="27.00" from="5171002" to="5170841#3"/>
    <trip id="28" depart="28.00" from="250506420#1" to="5203881"/>
    <trip id="29" depart="29.00" from="24821966#4" to="42748098"/>
    <trip id="30" depart="30.00" from="908533349" to="5170996"/>
    <trip id="31" depart="31.00" from="5170832" to="5171116#9"/>
    <trip id="32" depart="32.00" from="678761500" to="678697941"/>
    <trip id="33" depart="33.00" from="262946987#1" to="-45661304#2"/>
    <trip id="34" depart="34.00" from="340606281" to="322744961"/>
    <trip id="35" depart="35.00" from="262946969#6" to="882785079"/>
    <trip id="36" depart="36.00" from="820195887#0" to="340606281"/>
    <trip id="37" depart="37.00" from="5171050#0" to="42748309"/>
    <trip id="38" depart="38.00" from="849265773#0" to="42751505#0"/>
    <trip id="39" depart="39.00" from="301016680#0" to="301016678"/>
    <trip id="40" depart="40.00" from="5170832" to="31706460"/>
    <trip id="41" depart="41.00" from="5170833" to="878618792"/>
    <trip id="42" depart="42.00" from="42748309" to="262946987#1"/>
    <trip id="43" depart="43.00" from="926993944" to="42752388#1"/>
    <trip id="44" depart="44.00" from="-669737709#4" to="-5171116#4"/>
    <trip id="45" depart="45.00" from="-964816689" to="5170992"/>
    <trip id="46" depart="46.00" from="678697941" to="42751326"/>
    <trip id="47" depart="47.00" from="-5171133#4" to="42748098"/>
    <trip id="48" depart="48.00" from="926993944" to="45683113"/>
    <trip id="49" depart="49.00" from="884343942" to="82592221#2"/>
    <trip id="50" depart="50.00" from="-42747637#2" to="5171205#2"/>
    <trip id="51" depart="51.00" from="5171116#8" to="45683113"/>
    <trip id="52" depart="52.00" from="301016680#0" to="5170996"/>
    <trip id="53" depart="53.00" from="1009203146#1" to="42751497"/>
    <trip id="54" depart="54.00" from="42751504" to="882785082"/>
    <trip id="55" depart="55.00" from="722087240" to="322744954#0"/>
    <trip id="56" depart="56.00" from="42751509#4" to="250506433"/>
    <trip id="57" depart="57.00" from="849265769" to="82592231#1"/>
    <trip id="58" depart="58.00" from="340606261#1" to="5170996"/>
    <trip id="59" depart="59.00" from="5170841#3" to="24821966#4"/>
    <trip id="60" depart="60.00" from="535068843#0" to="45683113"/>
    <trip id="61" depart="61.00" from="669737711" to="45683113"/>
    <trip id="62" depart="62.00" from="-155218281" to="340606281"/>
    <trip id="63" depart="63.00" from="-42747695#1" to="881581728#1"/>
    <trip id="64" depart="64.00" from="820195887#1" to="679059343"/>
    <trip id="65" depart="65.00" from="340606267#1" to="-5171116#9"/>
    <trip id="66" depart="66.00" from="820195887#0" to="882785080"/>
    <trip id="67" depart="67.00" from="-669737709#0" to="42751505#1"/>
    <trip id="68" depart="68.00" from="-5171163#0" to="678697941"/>
    <trip id="69" depart="69.00" from="617999599" to="164138226#3"/>
    <trip id="70" depart="70.00" from="42751505#1" to="45683113"/>
    <trip id="71" depart="71.00" from="301016680#0" to="828700332#1"/>
    <trip id="72" depart="72.00" from="42751326" to="262946987#1"/>
    <trip id="73" depart="73.00" from="45683111" to="5203881"/>
    <trip id="74" depart="74.00" from="262946969#1" to="340606270#3"/>
    <trip id="75" depart="75.00" from="926993944" to="5171050#0"/>
    <trip id="76" depart="76.00" from="42751497" to="45658370"/>
    <trip id="77" depart="77.00" from="164138226#1" to="262946987#1"/>
    <trip id="78" depart="78.00" from="42747538" to="5170833"/>
    <trip id="79" depart="79.00" from="262946987#1" to="262946987#1"/>
    <trip id="80" depart="80.00" from="-5171163#2" to="5170993"/>
    <trip id="81" depart="81.00" from="262946987#1" to="878618792"/>
    <trip id="82" depart="82.00" from="722085187" to="-5171163#2"/>
    <trip id="83" depart="83.00" from="301016678" to="5171116#10"/>
    <trip id="84" depart="84.00" from="262946969#6" to="171140397"/>
    <trip id="85" depart="85.00" from="881624922#2" to="5170833"/>
    <trip id="86" depart="86.00" from="42751505#1" to="678697944"/>
    <trip id="87" depart="87.00" from="678697944" to="262946969#1"/>
    <trip id="88" depart="88.00" from="-82592231#1" to="42751496#0"/>
    <trip id="89" depart="89.00" from="42751326" to="42751505#1"/>
    <trip id="90" depart="90.00" from="5203881" to="5171116#3"/>
    <trip id="91" depart="91.00" from="908533349" to="-82592231#1"/>
    <trip id="92" depart="92.00" from="42750920" to="42747637#0"/>
    <trip id="93" depart="93.00" from="722085187" to="301016679"/>
    <trip id="94" depart="94.00" from="262946962#1" to="42751504"/>
    <trip id="95" depart="95.00" from="42751326" to="322744965#1"/>
    <trip id="96" depart="96.00" from="301016678" to="880273111"/>
    <trip id="97" depart="97.00" from="42751504" to="82592221#2"/>
    <trip id="98" depart="98.00" from="45683111" to="-5171116#7"/>
    <trip id="99" depart="99.00" from="964816689" to="722085187"/>
    <trip id="100" depart="100.00" from="884247586" to="880273111"/>
    <trip id="101" depart="101.00" from="678761500" to="250506420#1"/>
    <trip id="102" depart="102.00" from="42751505#1" to="262946987#1"/>
    <trip id="103" depart="103.00" from="42750918" to="-5171116#9"/>
    <trip id="104" depart="104.00" from="42748098" to="908533349"/>
    <trip id="105" depart="105.00" from="301016680#0" to="678697944"/>
    <trip id="106" depart="106.00" from="42751504" to="42751326"/>
    <trip id="107" depart="107.00" from="882785082" to="926993944"/>
    <trip id="108" depart="108.00" from="5170832" to="5171205#0"/>
    <trip id="109" depart="109.00" from="24821966#0" to="340606261#1"/>
    <trip id="110" depart="110.00" from="884247586" to="5170833"/>
    <trip id="111" depart="111.00" from="45683111" to="669737709#4"/>
    <trip id="112" depart="112.00" from="-5171116#9" to="5170833"/>
    <trip id="113" depart="113.00" from="42751509#5" to="820461462"/>
    <trip id="114" depart="114.00" from="24821966#3" to="882785082"/>
    <trip id="115" depart="115.00" from="-5171172#7" to="262946964"/>
    <trip id="116" depart="116.00" from="5170841#0" to="5171116#6"/>
    <trip id="117" depart="117.00" from="262947136" to="164138226#1"/>
    <trip id="118" depart="118.00" from="82592221#2" to="301016678"/>
    <trip id="119" depart="119.00" from="5170841#0" to="5170848#1"/>
    <trip id="120" depart="120.00" from="42751326" to="5170833"/>
    <trip id="121" depart="121.00" from="45661304#2" to="881624922#0"/>
    <trip id="122" depart="122.00" from="262946969#1" to="5171172#8"/>
    <trip id="123" depart="123.00" from="301016678" to="42748309"/>
    <trip id="124" depart="124.00" from="5171116#2" to="340606264"/>
    <trip id="125" depart="125.00" from="340606281" to="669737711"/>
    <trip id="126" depart="126.00" from="-5171163#3" to="42751505#0"/>
    <trip id="127" depart="127.00" from="926993944" to="926993944"/>
    <trip id="128" depart="128.00" from="-5171163#4" to="262946987#1"/>
    <trip id="129" depart="129.00" from="301016680#0" to="881624921"/>
    <trip id="130" depart="130.00" from="820461469" to="828700334#2"/>
    <trip id="131" depart="131.00" from="42747878" to="24821966#4"/>
    <trip id="132" depart="132.00" from="678761500" to="5171163#0"/>
    <trip id="133" depart="133.00" from="5170841#3" to="908533349"/>
    <trip id="134" depart="134.00" from="5171050#0" to="-220275673"/>
    <trip id="135" depart="135.00" from="678697945#0" to="340606261#4"/>
    <trip id="136" depart="136.00" from="5171050#2" to="881624922#4"/>
    <trip id="137" depart="137.00" from="197914056#0" to="1009203148"/>
    <trip id="138" depart="138.00" from="-884247586" to="5170832"/>
    <trip id="139" depart="139.00" from="322744954#0" to="5170841#3"/>
    <trip id="140" depart="140.00" from="5171172#9" to="262946969#6"/>
    <trip id="141" depart="141.00" from="5170993" to="322744954#0"/>
    <trip id="142" depart="142.00" from="42751505#1" to="878618792"/>
    <trip id="143" depart="143.00" from="678761500" to="-669737709#4"/>
    <trip id="144" depart="144.00" from="42751326" to="322744965#1"/>
    <trip id="145" depart="145.00" from="-170848626#0" to="678697941"/>
    <trip id="146" depart="146.00" from="5170994" to="31706460"/>
    <trip id="147" depart="147.00" from="5204786" to="45683113"/>
    <trip id="148" depart="148.00" from="42751354" to="-42747637#0"/>
    <trip id="149" depart="149.00" from="-5171163#4" to="828700337"/>
    <trip id="150" depart="150.00" from="828700334#1" to="45683113"/>
    <trip id="151" depart="151.00" from="678761500" to="5170833"/>
    <trip id="152" depart="152.00" from="23604841#1" to="164138226#3"/>
    <trip id="153" depart="153.00" from="340606267#1" to="878618792"/>
    <trip id="154" depart="154.00" from="678697941" to="82592221#2"/>
    <trip id="155" depart="155.00" from="82592241#2" to="262946987#1"/>
    <trip id="156" depart="156.00" from="301016678" to="-884247585"/>
    <trip id="157" depart="157.00" from="677423246" to="828700337"/>
    <trip id="158" depart="158.00" from="42750922#0" to="5170848#2"/>
    <trip id="159" depart="159.00" from="24821966#0" to="881581728#1"/>
    <trip id="160" depart="160.00" from="722085187" to="887526440#1"/>
    <trip id="161" depart="161.00" from="678697944" to="828700337"/>
    <trip id="162" depart="162.00" from="-42750923#0" to="617999599"/>
    <trip id="163" depart="163.00" from="387938685" to="881581728#1"/>
    <trip id="164" depart="164.00" from="678697941" to="82592226"/>
    <trip id="165" depart="165.00" from="678697944" to="322744961"/>
    <trip id="166" depart="166.00" from="678697941" to="-884247586"/>
    <trip id="167" depart="167.00" from="722087240" to="820461469"/>
    <trip id="168" depart="168.00" from="262946987#1" to="678761500"/>
    <trip id="169" depart="169.00" from="42751505#0" to="340606267#1"/>
    <trip id="170" depart="170.00" from="678697941" to="262947136"/>
    <trip id="171" depart="171.00" from="-42750923#0" to="262946969#1"/>
    <trip id="172" depart="172.00" from="340606281" to="82592226"/>
    <trip id="173" depart="173.00" from="884247586" to="322744965#1"/>
    <trip id="174" depart="174.00" from="5170996" to="42748309"/>
    <trip id="175" depart="175.00" from="887526445" to="45683113"/>
    <trip id="176" depart="176.00" from="881624922#4" to="1009203148"/>
    <trip id="177" depart="177.00" from="884343942" to="250506433"/>
    <trip id="178" depart="178.00" from="882785082" to="322744954#2"/>
    <trip id="179" depart="179.00" from="-884247586" to="42751497"/>
    <trip id="180" depart="180.00" from="5203881" to="340606281"/>
    <trip id="181" depart="181.00" from="5170841#3" to="42752388#1"/>
    <trip id="182" depart="182.00" from="42748183" to="5170833"/>
    <trip id="183" depart="183.00" from="301016678" to="5171163#4"/>
    <trip id="184" depart="184.00" from="-155218283#2" to="880273111"/>
    <trip id="185" depart="185.00" from="45683111" to="5171205#1"/>
    <trip id="186" depart="186.00" from="5204786" to="5171116#10"/>
    <trip id="187" depart="187.00" from="42747877" to="-5171163#1"/>
    <trip id="188" depart="188.00" from="5171050#2" to="387938685"/>
    <trip id="189" depart="189.00" from="340606281" to="722087240"/>
    <trip id="190" depart="190.00" from="5171205#1" to="340606264"/>
    <trip id="191" depart="191.00" from="340606267#1" to="42750923#4"/>
    <trip id="192" depart="192.00" from="42750918" to="340606261#0"/>
    <trip id="193" depart="193.00" from="164138226#3" to="42751326"/>
    <trip id="194" depart="194.00" from="882785076#1" to="5171116#7"/>
    <trip id="195" depart="195.00" from="828700334#1" to="5170841#3"/>
    <trip id="196" depart="196.00" from="340606264" to="45683113"/>
    <trip id="197" depart="197.00" from="-155218281" to="322744973#1"/>
    <trip id="198" depart="198.00" from="42751355" to="5170833"/>
    <trip id="199" depart="199.00" from="5171050#0" to="42751505#1"/>
</routes>
